/net/software/local/ansys/v195/fluent/fluent19.5.0/bin/fluent -r19.5.0 3d -g -t 48 -cnf=hosts.list -rsh -mpi=intel -pinfiniband -i C_U_11.jou
/net/software/local/ansys/v195/fluent/fluent19.5.0/cortex/lnamd64/cortex.19.5.0 -f fluent -g -i C_U_11.jou (fluent "3d -pinfiniband  -host -r19.5.0 -t48 -mpi=intel -cnf=hosts.list -path/net/software/local/ansys/v195/fluent")
/net/software/local/ansys/v195/fluent/fluent19.5.0/bin/fluent -r19.5.0 3d -pinfiniband -host -t48 -mpi=intel -cnf=hosts.list -path/net/software/local/ansys/v195/fluent -cx p1259.prometheus:37655:42480
Starting /net/software/local/ansys/v195/fluent/fluent19.5.0/lnamd64/3d_host/fluent.19.5.0 host -cx p1259.prometheus:37655:42480 "(list (rpsetvar (QUOTE parallel/function) "fluent 3d -flux -node -r19.5.0 -t48 -pinfiniband -mpi=intel -cnf=hosts.list ") (rpsetvar (QUOTE parallel/rhost) "") (rpsetvar (QUOTE parallel/ruser) "") (rpsetvar (QUOTE parallel/nprocs_string) "48") (rpsetvar (QUOTE parallel/auto-spawn?) #t) (rpsetvar (QUOTE parallel/trace-level) 0) (rpsetvar (QUOTE parallel/remote-shell) 0) (rpsetvar (QUOTE parallel/path) "/net/software/local/ansys/v195/fluent") (rpsetvar (QUOTE parallel/hostsfile) "hosts.list") )"

              Welcome to ANSYS Fluent 2019 R3

              Copyright 1987-2019 ANSYS, Inc. All Rights Reserved.
              Unauthorized use, distribution or duplication is prohibited.
              This product is subject to U.S. laws governing export and re-export.
              For full Legal Notice, see documentation.

Build Time: Aug 05 2019 15:40:42 EDT  Build Id: 10249  
 

     --------------------------------------------------------------
     This is an academic version of ANSYS FLUENT. Usage of this product
     license is limited to the terms and conditions specified in your ANSYS
     license form, additional terms section.
     --------------------------------------------------------------
Host spawning Node 0 on machine "p1259" (unix).
/net/software/local/ansys/v195/fluent/fluent19.5.0/bin/fluent -r19.5.0 3d -flux -node -t48 -pinfiniband -mpi=intel -cnf=hosts.list -mport 172.20.68.239:172.20.68.239:32783:0
Starting /net/software/local/ansys/v195/fluent/fluent19.5.0/multiport/mpi/lnamd64/intel/bin/mpirun -f /tmp/fluent-appfile.plgpawwier.29400 -genv I_MPI_FABRICS shm:dapl -genv I_MPI_DAPL_UD enable -genv I_MPI_FALLBACK_DEVICE disable -genv FLUENT_ARCH lnamd64 -genv I_MPI_DEBUG 0 -genv I_MPI_PIN disable -genv I_MPI_ADJUST_REDUCE 2 -genv I_MPI_ADJUST_ALLREDUCE 2 -genv I_MPI_ADJUST_BCAST 1 -genv I_MPI_PLATFORM auto -genv I_MPI_DAPL_SCALABLE_PROGRESS 1 -genv PYTHONHOME /net/software/local/ansys/v195/fluent/fluent19.5.0/../../commonfiles/CPython/2_7_15/linx64/Release/python -genv FLUENT_PROD_DIR /net/software/local/ansys/v195/fluent/fluent19.5.0 -genv KMP_AFFINITY=disabled -genv LD_PRELOAD /net/software/local/ansys/v195/fluent/fluent19.5.0/multiport/mpi/lnamd64/intel/lib/libmpi_mt.so -genv TMI_CONFIG /net/software/local/ansys/v195/fluent/fluent19.5.0/multiport/mpi/lnamd64/intel/etc/tmi.conf -machinefile /tmp/fluent-appfile.plgpawwier.29400 -np 48 /net/software/local/ansys/v195/fluent/fluent19.5.0/lnamd64/3d_node/fluent_mpi.19.5.0 node -mpiw intel -pic infiniband -mport 172.20.68.239:172.20.68.239:32783:0

-------------------------------------------------------------------------------
ID      Hostname  Core   O.S.      PID          Vendor                      
-------------------------------------------------------------------------------
n24-47  p1260     24/24  Linux-64  21135-21158  Intel(R) Xeon(R) E5-2680 v3 
n0-23   p1259     24/24  Linux-64  29642-29665  Intel(R) Xeon(R) E5-2680 v3 
host    p1259            Linux-64  29210        Intel(R) Xeon(R) E5-2680 v3 

MPI Option Selected: intel
Selected system interconnect: InfiniBand
-------------------------------------------------------------------------------


Reading journal file C_U_11.jou...

> ; case_name = C_U_11
; mesh_name = C_U_11V
/file/read-case /net/archive/groups/plggfsracing/CASE_monitors.cas.gz

Multicore processors detected. Processor affinity set!

Reading "\"| gunzip -c \\\"/net/archive/groups/plggfsracing/CASE_monitors.cas.gz\\\"\""...

Buffering for file scan...



 6142890 tetrahedral cells, zone 9281, binary.
   93830 tetrahedral cells, zone 9280, binary.
   63227 tetrahedral cells, zone 9279, binary.
 6142890 cell partition ids, zone 9281, 48 partitions, binary.
   93830 cell partition ids, zone 9280, 48 partitions, binary.
   63227 cell partition ids, zone 9279, 48 partitions, binary.
      84 triangular mass-flow-inlet faces, zone 6066, binary.
   33456 triangular wall faces, zone 5112, binary.
   36738 triangular wall faces, zone 3659, binary.
   19229 triangular wall faces, zone 9348, binary.
   15474 triangular wall faces, zone 3434, binary.
    8043 triangular wall faces, zone 3435, binary.
      19 triangular mass-flow-inlet faces, zone 7167, binary.
   19789 triangular wall faces, zone 5682, binary.
    3422 triangular symmetry faces, zone 230, binary.
     938 triangular pressure-outlet faces, zone 4886, binary.
   32103 triangular symmetry faces, zone 516, binary.
   39048 triangular wall faces, zone 235, binary.
    1023 triangular velocity-inlet faces, zone 234, binary.
    3427 triangular symmetry faces, zone 238, binary.
    6955 triangular jump faces, zone 7262, binary.
   16838 triangular interior faces, zone 7260, binary.
   16834 triangular interior faces, zone 7261, binary.
    5263 triangular wall faces, zone 7246, binary.
    5586 triangular wall faces, zone 7248, binary.
    7613 triangular wall faces, zone 5709, binary.
    2219 triangular wall faces, zone 5109, binary.
    8155 triangular wall faces, zone 9366, binary.
   12774 triangular wall faces, zone 9326, binary.
    7022 triangular wall faces, zone 9325, binary.
    6334 triangular wall faces, zone 9324, binary.
   16467 triangular wall faces, zone 9323, binary.
    2904 triangular wall faces, zone 9322, binary.
    5657 triangular wall faces, zone 9321, binary.
    2578 triangular wall faces, zone 9320, binary.
    7188 triangular wall faces, zone 9319, binary.
    3762 triangular wall faces, zone 9318, binary.
    4569 triangular wall faces, zone 9317, binary.
    1238 triangular wall faces, zone 9355, binary.
12123247 triangular interior faces, zone 9354, binary.
  168031 triangular interior faces, zone 9353, binary.
  111928 triangular interior faces, zone 9352, binary.
 1124692 nodes, binary.
1124692 node flags, binary.

Building...
     mesh
	distributing mesh
		parts................................................,
		faces................................................,
		nodes................................................,
		cells................................................,
        bandwidth reduction using Reverse Cuthill-McKee: 131412/3055 = 43.0154
     materials,
     interface,
     domains,
	mixture
     zones,
	b
	s
	rw-e
	prawa-przednia
	prawa-tylna
	d
	farfield-top
	outlet
	symmetry
	road
	inlet
	farfield-side
	fan-walls
	he-walls
	su
	n
	fw-e1
	fw-2
	fw-3
	fw-4
	fw-1
	rw-3
	rw-4
	rw-2
	rw-1
	s-1
	s-2
	s-e1
	interior-14
	interior-17
	interior-20
	zwezka-inlet
	wydech
	he-in
	fan
	he-out
	domain
	he
	domain-2
Information: The surface name surf-38 no longer exists for report definition rwheel-bot-center. They must have been deactivated/deleted.
Information: The surface name surf-37 no longer exists for report definition rwheel-bot-out. They must have been deactivated/deleted.
Information: The surface name surf-36 no longer exists for report definition rwheel-center-in. They must have been deactivated/deleted.
Information: The surface name surf-35 no longer exists for report definition rwheel-center-center. They must have been deactivated/deleted.
Information: The surface name surf-34 no longer exists for report definition rwheel-center-out. They must have been deactivated/deleted.
Information: The surface name surf-33 no longer exists for report definition rhweel-up-in. They must have been deactivated/deleted.
Information: The surface name surf-32 no longer exists for report definition rwheel-up-center. They must have been deactivated/deleted.
Information: The surface name surf-31 no longer exists for report definition rwheel-up-out. They must have been deactivated/deleted.
Information: The surface name surf-30 no longer exists for report definition outside-bot-in. They must have been deactivated/deleted.
Information: The surface name surf-29 no longer exists for report definition outside-bot-center. They must have been deactivated/deleted.
Information: The surface name surf-28 no longer exists for report definition outside-bot-out. They must have been deactivated/deleted.
Information: The surface name surf-27 no longer exists for report definition outside-center-in. They must have been deactivated/deleted.
Information: The surface name surf-26 no longer exists for report definition outside-center-center. They must have been deactivated/deleted.
Information: The surface name surf-25 no longer exists for report definition outside-center-out. They must have been deactivated/deleted.
Information: The surface name surf-24 no longer exists for report definition outside-up-in. They must have been deactivated/deleted.
Information: The surface name surf-23 no longer exists for report definition outside-up-center. They must have been deactivated/deleted.
Information: The surface name surf-22 no longer exists for report definition outisde-up-out. They must have been deactivated/deleted.
Information: The surface name surf-21 no longer exists for report definition fwheel-bot-in. They must have been deactivated/deleted.
Information: The surface name surf-20 no longer exists for report definition fwheel-bot-center. They must have been deactivated/deleted.
Information: The surface name surf-19 no longer exists for report definition fwheel-bot-out. They must have been deactivated/deleted.
Information: The surface name surf-18 no longer exists for report definition fwheel-center-in. They must have been deactivated/deleted.
Information: The surface name surf-17 no longer exists for report definition fwheel-center-center. They must have been deactivated/deleted.
Information: The surface name surf-16 no longer exists for report definition fwheel-center-out. They must have been deactivated/deleted.
Information: The surface name surf-15 no longer exists for report definition fwheel-up-in. They must have been deactivated/deleted.
Information: The surface name surf-14 no longer exists for report definition fwheel-up-center. They must have been deactivated/deleted.
Information: The surface name surf-13 no longer exists for report definition fwheel-up-out. They must have been deactivated/deleted.
Information: The surface name surf-12 no longer exists for report definition s-floor-endplate. They must have been deactivated/deleted.
Information: The surface name surf-11 no longer exists for report definition s-floor-in. They must have been deactivated/deleted.
Information: The surface name surf-10 no longer exists for report definition s-floor-center. They must have been deactivated/deleted.
Information: The surface name surf-9 no longer exists for report definition s-floor-out. They must have been deactivated/deleted.
Information: The surface name surf-8 no longer exists for report definition s-bottom-in. They must have been deactivated/deleted.
Information: The surface name surf-7 no longer exists for report definition s-bottom-out. They must have been deactivated/deleted.
Information: The surface name surf-6 no longer exists for report definition s-center-in. They must have been deactivated/deleted.
Information: The surface name surf-5 no longer exists for report definition s-center-out. They must have been deactivated/deleted.
Information: The surface name surf-4 no longer exists for report definition s-up-in. They must have been deactivated/deleted.
Information: The surface name surf-3 no longer exists for report definition s-up-out. They must have been deactivated/deleted.
Information: The surface name surf-40 no longer exists for report definition d-out. They must have been deactivated/deleted.
Information: The surface name surf-39 no longer exists for report definition d-in. They must have been deactivated/deleted.
Information: The surface name surf-2 no longer exists for report definition floor-2. They must have been deactivated/deleted.
Information: The surface name surf-1 no longer exists for report definition floor-1. They must have been deactivated/deleted.
Note that the 'Average over' setting will be ignored for evaluation of output parameter and only instantaneous values will be used.

Note that the 'Average over' setting will be ignored for evaluation of output parameter and only instantaneous values will be used.

Note that the 'Average over' setting will be ignored for evaluation of output parameter and only instantaneous values will be used.

     parallel,
Adjoint Solver is activated.

Done.

Information: The surface name surf-38 no longer exists for report definition rwheel-bot-center. They must have been deactivated/deleted.
Information: The surface name surf-37 no longer exists for report definition rwheel-bot-out. They must have been deactivated/deleted.
Information: The surface name surf-36 no longer exists for report definition rwheel-center-in. They must have been deactivated/deleted.
Information: The surface name surf-35 no longer exists for report definition rwheel-center-center. They must have been deactivated/deleted.
Information: The surface name surf-34 no longer exists for report definition rwheel-center-out. They must have been deactivated/deleted.
Information: The surface name surf-33 no longer exists for report definition rhweel-up-in. They must have been deactivated/deleted.
Information: The surface name surf-32 no longer exists for report definition rwheel-up-center. They must have been deactivated/deleted.
Information: The surface name surf-31 no longer exists for report definition rwheel-up-out. They must have been deactivated/deleted.
Information: The surface name surf-30 no longer exists for report definition outside-bot-in. They must have been deactivated/deleted.
Information: The surface name surf-29 no longer exists for report definition outside-bot-center. They must have been deactivated/deleted.
Information: The surface name surf-28 no longer exists for report definition outside-bot-out. They must have been deactivated/deleted.
Information: The surface name surf-27 no longer exists for report definition outside-center-in. They must have been deactivated/deleted.
Information: The surface name surf-26 no longer exists for report definition outside-center-center. They must have been deactivated/deleted.
Information: The surface name surf-25 no longer exists for report definition outside-center-out. They must have been deactivated/deleted.
Information: The surface name surf-24 no longer exists for report definition outside-up-in. They must have been deactivated/deleted.
Information: The surface name surf-23 no longer exists for report definition outside-up-center. They must have been deactivated/deleted.
Information: The surface name surf-22 no longer exists for report definition outisde-up-out. They must have been deactivated/deleted.
Information: The surface name surf-21 no longer exists for report definition fwheel-bot-in. They must have been deactivated/deleted.
Information: The surface name surf-20 no longer exists for report definition fwheel-bot-center. They must have been deactivated/deleted.
Information: The surface name surf-19 no longer exists for report definition fwheel-bot-out. They must have been deactivated/deleted.
Information: The surface name surf-18 no longer exists for report definition fwheel-center-in. They must have been deactivated/deleted.
Information: The surface name surf-17 no longer exists for report definition fwheel-center-center. They must have been deactivated/deleted.
Information: The surface name surf-16 no longer exists for report definition fwheel-center-out. They must have been deactivated/deleted.
Information: The surface name surf-15 no longer exists for report definition fwheel-up-in. They must have been deactivated/deleted.
Information: The surface name surf-14 no longer exists for report definition fwheel-up-center. They must have been deactivated/deleted.
Information: The surface name surf-13 no longer exists for report definition fwheel-up-out. They must have been deactivated/deleted.
Information: The surface name surf-12 no longer exists for report definition s-floor-endplate. They must have been deactivated/deleted.
Information: The surface name surf-11 no longer exists for report definition s-floor-in. They must have been deactivated/deleted.
Information: The surface name surf-10 no longer exists for report definition s-floor-center. They must have been deactivated/deleted.
Information: The surface name surf-9 no longer exists for report definition s-floor-out. They must have been deactivated/deleted.
Information: The surface name surf-8 no longer exists for report definition s-bottom-in. They must have been deactivated/deleted.
Information: The surface name surf-7 no longer exists for report definition s-bottom-out. They must have been deactivated/deleted.
Information: The surface name surf-6 no longer exists for report definition s-center-in. They must have been deactivated/deleted.
Information: The surface name surf-5 no longer exists for report definition s-center-out. They must have been deactivated/deleted.
Information: The surface name surf-4 no longer exists for report definition s-up-in. They must have been deactivated/deleted.
Information: The surface name surf-3 no longer exists for report definition s-up-out. They must have been deactivated/deleted.
Information: The surface name surf-40 no longer exists for report definition d-out. They must have been deactivated/deleted.
Information: The surface name surf-39 no longer exists for report definition d-in. They must have been deactivated/deleted.
Information: The surface name surf-2 no longer exists for report definition floor-2. They must have been deactivated/deleted.
Information: The surface name surf-1 no longer exists for report definition floor-1. They must have been deactivated/deleted.
> /file/replace-mesh "/net/scratch/people/plgpawwier/C_U_11V.msh.gz"
Writing Settings file "AnwNP5"...
	writing rp variables ... Done.
	writing domain variables ... Done.
	writing domain-2 (type fluid) (mixture) ... Done.
	writing he (type fluid) (mixture) ... Done.
	writing domain (type fluid) (mixture) ... Done.
	writing he-out (type interior) (mixture) ... Done.
	writing fan (type fan) (mixture) ... Done.
	writing he-in (type interior) (mixture) ... Done.
	writing wydech (type mass-flow-inlet) (mixture) ... Done.
	writing zwezka-inlet (type mass-flow-outlet) (mixture) ... Done.
	writing interior-20 (type interior) (mixture) ... Done.
	writing interior-17 (type interior) (mixture) ... Done.
	writing interior-14 (type interior) (mixture) ... Done.
	writing s-e1 (type wall) (mixture) ... Done.
	writing s-2 (type wall) (mixture) ... Done.
	writing s-1 (type wall) (mixture) ... Done.
	writing rw-1 (type wall) (mixture) ... Done.
	writing rw-2 (type wall) (mixture) ... Done.
	writing rw-4 (type wall) (mixture) ... Done.
	writing rw-3 (type wall) (mixture) ... Done.
	writing fw-1 (type wall) (mixture) ... Done.
	writing fw-4 (type wall) (mixture) ... Done.
	writing fw-3 (type wall) (mixture) ... Done.
	writing fw-2 (type wall) (mixture) ... Done.
	writing fw-e1 (type wall) (mixture) ... Done.
	writing n (type wall) (mixture) ... Done.
	writing su (type wall) (mixture) ... Done.
	writing he-walls (type wall) (mixture) ... Done.
	writing fan-walls (type wall) (mixture) ... Done.
	writing farfield-side (type symmetry) (mixture) ... Done.
	writing inlet (type velocity-inlet) (mixture) ... Done.
	writing road (type wall) (mixture) ... Done.
	writing symmetry (type symmetry) (mixture) ... Done.
	writing outlet (type pressure-outlet) (mixture) ... Done.
	writing farfield-top (type symmetry) (mixture) ... Done.
	writing d (type wall) (mixture) ... Done.
	writing prawa-tylna (type wall) (mixture) ... Done.
	writing prawa-przednia (type wall) (mixture) ... Done.
	writing rw-e (type wall) (mixture) ... Done.
	writing s (type wall) (mixture) ... Done.
	writing b (type wall) (mixture) ... Done.
	writing zones map name-id ... Done.

Multicore processors detected. Processor affinity set!

Reading "\"| gunzip -c \\\"/net/scratch/people/plgpawwier/C_U_11V.msh.gz\\\"\""...

Buffering for file scan...


       Clearing partially read grid.
  413472 nodes, binary.
  460470 nodes, binary.
56174784 nodes, binary.
 2507878 nodes, binary.
  711648 polygonal interior faces, zone 5035, binary.
  730984 polygonal interior faces, zone 5040, binary.
116618186 polygonal interior faces, zone 5045, binary.
    7878 polygonal wall faces, zone 4782, binary.
   17011 polygonal wall faces, zone 4783, binary.
   16985 polygonal wall faces, zone 4784, binary.
     854 polygonal wall faces, zone 19, binary.
    1403 polygonal wall faces, zone 311, binary.
   15091 polygonal symmetry faces, zone 323, binary.
    5290 polygonal pressure-outlet faces, zone 327, binary.
   97949 polygonal symmetry faces, zone 328, binary.
    5315 polygonal velocity-inlet faces, zone 332, binary.
   18273 polygonal symmetry faces, zone 338, binary.
    8462 polygonal wall faces, zone 109, binary.
   39731 polygonal wall faces, zone 303, binary.
   47150 polygonal wall faces, zone 295, binary.
   58142 polygonal wall faces, zone 307, binary.
    4491 polygonal wall faces, zone 294, binary.
   48178 polygonal wall faces, zone 122, binary.
   68074 polygonal wall faces, zone 308, binary.
   35756 polygonal wall faces, zone 118, binary.
   36571 polygonal wall faces, zone 124, binary.
   91231 polygonal wall faces, zone 261, binary.
    1802 polygonal wall faces, zone 117, binary.
   51688 polygonal wall faces, zone 309, binary.
  119015 polygonal wall faces, zone 320, binary.
   33196 polygonal wall faces, zone 134, binary.
   47644 polygonal wall faces, zone 140, binary.
  211495 polygonal wall faces, zone 344, binary.
  126468 polygonal wall faces, zone 280, binary.
   34055 polygonal wall faces, zone 56, binary.
    7340 polygonal wall faces, zone 17, binary.
    5053 polygonal wall faces, zone 18, binary.
   23809 polygonal wall faces, zone 32, binary.
   10043 polygonal wall faces, zone 142, binary.
   46045 polygonal wall faces, zone 31, binary.
   78746 polygonal wall faces, zone 65, binary.
  124427 polygonal wall faces, zone 99, binary.
  141474 polygonal wall faces, zone 329, binary.
30848165 polyhedra cells, zone 6775, binary.
  159477 polyhedra cells, zone 6778, binary.
  148578 polyhedra cells, zone 6781, binary.
Warning: reading 10 partition grid onto 48 compute node machine;
         will auto partition.
30848165 cell partition ids, zone 6775, 10 partitions, binary.
Warning: reading 10 partition grid onto 48 compute node machine;
         will auto partition.
  159477 cell partition ids, zone 6778, 10 partitions, binary.
Warning: reading 10 partition grid onto 48 compute node machine;
         will auto partition.
  148578 cell partition ids, zone 6781, 10 partitions, binary.

Building...
     mesh
	auto partitioning mesh by Metis (fast),
	distributing mesh
		parts................................................,
		faces................................................,
		nodes................................................,
		cells................................................,
        inter-node communication reduction using architecture-aware remapping: 56%
        bandwidth reduction using Reverse Cuthill-McKee: 714600/25155 = 28.4079
Info: The mesh contains elements that are invalid or of poor quality.

      A different numerical scheme will be applied to these elements,
      which may affect the quality of the solution. It is recommended
      that you consider removing the invalid and poor quality elements
      in the mesh.

      For more information on the invalid and poor quality elements,
      please use the following TUI commands:

      /mesh/check
      /mesh/repair-improve/report-poor-elements.
Slitting wall zone 4782 into a coupled wall.
Slitting wall zone 4783 into a coupled wall.
Slitting wall zone 4784 into a coupled wall.
     materials,
     interface,
     domains,
     zones,
	fan-shadow
	he-out-shadow
	he-in-shadow
	interior-5035
	interior-5040
	interior-5045
	fan
	he-out
	he-in
	zwezka-inlet
	wydech
	farfield-top
	outlet
	symmetry
	inlet
	farfield-side
	maczety
	fw-3
	fw-4
	fw-2
	pylony
	rw-3
	fw-1
	rw-4
	rw-2
	prawa-przednia
	rw-inserty
	fw-e1
	d
	rw-1
	rw-e
	b
	prawa-tylna
	s-1
	fan-walls
	he-walls
	s-2
	n
	s-e1
	s
	su
	road
	domain
	domain-2
	he
     parallel,
Done.

Reading Settings file "AnwNP5"...

 Setting zone id of he to 9280.
 Setting zone id of domain-2 to 9279.
 Setting zone id of domain to 9281.
 Setting zone id of road to 235.
 Setting zone id of su to 5709.
 Setting zone id of s to 3659.
 Setting zone id of s-e1 to 9355.
 Setting zone id of n to 5109.
 Setting zone id of s-2 to 9317.
 Setting zone id of he-walls to 7248.
 Setting zone id of fan-walls to 7246.
 Setting zone id of s-1 to 9318.
 Setting zone id of prawa-tylna to 3435.
 Setting zone id of b to 5112.
 Setting zone id of rw-e to 9348.
 Setting zone id of rw-1 to 9319.
 Setting zone id of d to 5682.
 Setting zone id of fw-e1 to 9366.
 Setting zone id of prawa-przednia to 3434.
 Setting zone id of rw-2 to 9320.
 Setting zone id of rw-4 to 9321.
 Setting zone id of fw-1 to 9323.
 Setting zone id of rw-3 to 9322.
 Setting zone id of fw-2 to 9326.
 Setting zone id of fw-4 to 9324.
 Setting zone id of fw-3 to 9325.
 Setting zone id of farfield-side to 238.
 Setting zone id of inlet to 234.
 Setting zone id of symmetry to 516.
 Setting zone id of outlet to 4886.
 Setting zone id of farfield-top to 230.
 Setting zone id of wydech to 7167.
 Setting zone id of zwezka-inlet to 6066.
 Setting zone id of he-in to 7260.
 Setting zone id of he-out to 7261.
 Setting zone id of fan to 7262.
Done.

Adjoint Solver is activated.

Setting domain-2 (mixture) ... Done.
Setting he (mixture) ... Done.
Setting domain (mixture) ... Done.
Setting he-out (mixture) (zone type changed to interior) 
wall 7261 and wall 9410 sewn together, wall 9410 deleted.

Duplicate junction nodes on zone 7261 if needed.... Done.
Setting fan (mixture) (zone type changed to fan) 
wall 7262 and wall 9411 sewn together, wall 9411 deleted.

Duplicate junction nodes on zone 7262 if needed.... Done.
Setting he-in (mixture) (zone type changed to interior) 
wall 7260 and wall 9409 sewn together, wall 9409 deleted.
... Done.
Setting wydech (mixture) (zone type changed to mass-flow-inlet) ... Done.
Setting zwezka-inlet (mixture) (zone type changed to mass-flow-outlet) ... Done.
No zone with name interior-20 (type interior) (mixture), skipped.
No zone with name interior-17 (type interior) (mixture), skipped.
No zone with name interior-14 (type interior) (mixture), skipped.
Setting s-e1 (mixture) ... Done.
Setting s-2 (mixture) ... Done.
Setting s-1 (mixture) ... Done.
Setting rw-1 (mixture) ... Done.
Setting rw-2 (mixture) ... Done.
Setting rw-4 (mixture) ... Done.
Setting rw-3 (mixture) ... Done.
Setting fw-1 (mixture) ... Done.
Setting fw-4 (mixture) ... Done.
Setting fw-3 (mixture) ... Done.
Setting fw-2 (mixture) ... Done.
Setting fw-e1 (mixture) ... Done.
Setting n (mixture) ... Done.
Setting su (mixture) ... Done.
Setting he-walls (mixture) ... Done.
Setting fan-walls (mixture) ... Done.
Setting farfield-side (mixture) ... Done.
Setting inlet (mixture) ... Done.
Setting road (mixture) ... Done.
Setting symmetry (mixture) ... Done.
Setting outlet (mixture) ... Done.
Setting farfield-top (mixture) ... Done.
Setting d (mixture) ... Done.
Setting prawa-tylna (mixture) ... Done.
Setting prawa-przednia (mixture) ... Done.
Setting rw-e (mixture) ... Done.
Setting s (mixture) ... Done.
Setting b (mixture) ... Done.

Checking newly created zones for preferred zone IDs...
Found new zone. Assigning default settings to rw-inserty (type wall).
Found new zone. Assigning default settings to pylony (type wall).
Found new zone. Assigning default settings to maczety (type wall).
Found new zone. Assigning default settings to interior-5045 (type interior).
Found new zone. Assigning default settings to interior-5040 (type interior).
Found new zone. Assigning default settings to interior-5035 (type interior).

Note that the 'Average over' setting will be ignored for evaluation of output parameter and only instantaneous values will be used.

Note that the 'Average over' setting will be ignored for evaluation of output parameter and only instantaneous values will be used.

Note that the 'Average over' setting will be ignored for evaluation of output parameter and only instantaneous values will be used.

Information: The surface name surf-1 no longer exists for report definition floor-1. They must have been deactivated/deleted.
Information: The surface name surf-2 no longer exists for report definition floor-2. They must have been deactivated/deleted.
Information: The surface name surf-39 no longer exists for report definition d-in. They must have been deactivated/deleted.
Information: The surface name surf-40 no longer exists for report definition d-out. They must have been deactivated/deleted.
Information: The surface name surf-3 no longer exists for report definition s-up-out. They must have been deactivated/deleted.
Information: The surface name surf-4 no longer exists for report definition s-up-in. They must have been deactivated/deleted.
Information: The surface name surf-5 no longer exists for report definition s-center-out. They must have been deactivated/deleted.
Information: The surface name surf-6 no longer exists for report definition s-center-in. They must have been deactivated/deleted.
Information: The surface name surf-7 no longer exists for report definition s-bottom-out. They must have been deactivated/deleted.
Information: The surface name surf-8 no longer exists for report definition s-bottom-in. They must have been deactivated/deleted.
Information: The surface name surf-9 no longer exists for report definition s-floor-out. They must have been deactivated/deleted.
Information: The surface name surf-10 no longer exists for report definition s-floor-center. They must have been deactivated/deleted.
Information: The surface name surf-11 no longer exists for report definition s-floor-in. They must have been deactivated/deleted.
Information: The surface name surf-12 no longer exists for report definition s-floor-endplate. They must have been deactivated/deleted.
Information: The surface name surf-13 no longer exists for report definition fwheel-up-out. They must have been deactivated/deleted.
Information: The surface name surf-14 no longer exists for report definition fwheel-up-center. They must have been deactivated/deleted.
Information: The surface name surf-15 no longer exists for report definition fwheel-up-in. They must have been deactivated/deleted.
Information: The surface name surf-16 no longer exists for report definition fwheel-center-out. They must have been deactivated/deleted.
Information: The surface name surf-17 no longer exists for report definition fwheel-center-center. They must have been deactivated/deleted.
Information: The surface name surf-18 no longer exists for report definition fwheel-center-in. They must have been deactivated/deleted.
Information: The surface name surf-19 no longer exists for report definition fwheel-bot-out. They must have been deactivated/deleted.
Information: The surface name surf-20 no longer exists for report definition fwheel-bot-center. They must have been deactivated/deleted.
Information: The surface name surf-21 no longer exists for report definition fwheel-bot-in. They must have been deactivated/deleted.
Information: The surface name surf-22 no longer exists for report definition outisde-up-out. They must have been deactivated/deleted.
Information: The surface name surf-23 no longer exists for report definition outside-up-center. They must have been deactivated/deleted.
Information: The surface name surf-24 no longer exists for report definition outside-up-in. They must have been deactivated/deleted.
Information: The surface name surf-25 no longer exists for report definition outside-center-out. They must have been deactivated/deleted.
Information: The surface name surf-26 no longer exists for report definition outside-center-center. They must have been deactivated/deleted.
Information: The surface name surf-27 no longer exists for report definition outside-center-in. They must have been deactivated/deleted.
Information: The surface name surf-28 no longer exists for report definition outside-bot-out. They must have been deactivated/deleted.
Information: The surface name surf-29 no longer exists for report definition outside-bot-center. They must have been deactivated/deleted.
Information: The surface name surf-30 no longer exists for report definition outside-bot-in. They must have been deactivated/deleted.
Information: The surface name surf-31 no longer exists for report definition rwheel-up-out. They must have been deactivated/deleted.
Information: The surface name surf-32 no longer exists for report definition rwheel-up-center. They must have been deactivated/deleted.
Information: The surface name surf-33 no longer exists for report definition rhweel-up-in. They must have been deactivated/deleted.
Information: The surface name surf-34 no longer exists for report definition rwheel-center-out. They must have been deactivated/deleted.
Information: The surface name surf-35 no longer exists for report definition rwheel-center-center. They must have been deactivated/deleted.
Information: The surface name surf-36 no longer exists for report definition rwheel-center-in. They must have been deactivated/deleted.
Information: The surface name surf-37 no longer exists for report definition rwheel-bot-out. They must have been deactivated/deleted.
Information: The surface name surf-38 no longer exists for report definition rwheel-bot-center. They must have been deactivated/deleted.
 o
Information: The surface name surf-1 no longer exists for report definition floor-1. They must have been deactivated/deleted.
Information: The surface name surf-2 no longer exists for report definition floor-2. They must have been deactivated/deleted.
Information: The surface name surf-39 no longer exists for report definition d-in. They must have been deactivated/deleted.
Information: The surface name surf-40 no longer exists for report definition d-out. They must have been deactivated/deleted.
Information: The surface name surf-3 no longer exists for report definition s-up-out. They must have been deactivated/deleted.
Information: The surface name surf-4 no longer exists for report definition s-up-in. They must have been deactivated/deleted.
Information: The surface name surf-5 no longer exists for report definition s-center-out. They must have been deactivated/deleted.
Information: The surface name surf-6 no longer exists for report definition s-center-in. They must have been deactivated/deleted.
Information: The surface name surf-7 no longer exists for report definition s-bottom-out. They must have been deactivated/deleted.
Information: The surface name surf-8 no longer exists for report definition s-bottom-in. They must have been deactivated/deleted.
Information: The surface name surf-9 no longer exists for report definition s-floor-out. They must have been deactivated/deleted.
Information: The surface name surf-10 no longer exists for report definition s-floor-center. They must have been deactivated/deleted.
Information: The surface name surf-11 no longer exists for report definition s-floor-in. They must have been deactivated/deleted.
Information: The surface name surf-12 no longer exists for report definition s-floor-endplate. They must have been deactivated/deleted.
Information: The surface name surf-13 no longer exists for report definition fwheel-up-out. They must have been deactivated/deleted.
Information: The surface name surf-14 no longer exists for report definition fwheel-up-center. They must have been deactivated/deleted.
Information: The surface name surf-15 no longer exists for report definition fwheel-up-in. They must have been deactivated/deleted.
Information: The surface name surf-16 no longer exists for report definition fwheel-center-out. They must have been deactivated/deleted.
Information: The surface name surf-17 no longer exists for report definition fwheel-center-center. They must have been deactivated/deleted.
Information: The surface name surf-18 no longer exists for report definition fwheel-center-in. They must have been deactivated/deleted.
Information: The surface name surf-19 no longer exists for report definition fwheel-bot-out. They must have been deactivated/deleted.
Information: The surface name surf-20 no longer exists for report definition fwheel-bot-center. They must have been deactivated/deleted.
Information: The surface name surf-21 no longer exists for report definition fwheel-bot-in. They must have been deactivated/deleted.
Information: The surface name surf-22 no longer exists for report definition outisde-up-out. They must have been deactivated/deleted.
Information: The surface name surf-23 no longer exists for report definition outside-up-center. They must have been deactivated/deleted.
Information: The surface name surf-24 no longer exists for report definition outside-up-in. They must have been deactivated/deleted.
Information: The surface name surf-25 no longer exists for report definition outside-center-out. They must have been deactivated/deleted.
Information: The surface name surf-26 no longer exists for report definition outside-center-center. They must have been deactivated/deleted.
Information: The surface name surf-27 no longer exists for report definition outside-center-in. They must have been deactivated/deleted.
Information: The surface name surf-28 no longer exists for report definition outside-bot-out. They must have been deactivated/deleted.
Information: The surface name surf-29 no longer exists for report definition outside-bot-center. They must have been deactivated/deleted.
Information: The surface name surf-30 no longer exists for report definition outside-bot-in. They must have been deactivated/deleted.
Information: The surface name surf-31 no longer exists for report definition rwheel-up-out. They must have been deactivated/deleted.
Information: The surface name surf-32 no longer exists for report definition rwheel-up-center. They must have been deactivated/deleted.
Information: The surface name surf-33 no longer exists for report definition rhweel-up-in. They must have been deactivated/deleted.
Information: The surface name surf-34 no longer exists for report definition rwheel-center-out. They must have been deactivated/deleted.
Information: The surface name surf-35 no longer exists for report definition rwheel-center-center. They must have been deactivated/deleted.
Information: The surface name surf-36 no longer exists for report definition rwheel-center-in. They must have been deactivated/deleted.
Information: The surface name surf-37 no longer exists for report definition rwheel-bot-out. They must have been deactivated/deleted.
Information: The surface name surf-38 no longer exists for report definition rwheel-bot-center. They must have been deactivated/deleted.k
invalid command [ok]

> /mesh/surface-mesh/read /net/scratch/people/plgpawwier/C_U_11_surf.msh.gz m
Reading "\"| gunzip -c \\\"/net/scratch/people/plgpawwier/C_U_11_surf.msh.gz\\\"\""...

  .............................................................................................................

      35 nodes, binary.
      69 nodes, binary.
      44 nodes, binary.
      44 nodes, binary.
      47 nodes, binary.
      14 nodes, binary.
      33 nodes, binary.
      33 triangular unreferenced faces, zone  2, binary.
       4 triangular unreferenced faces, zone 10, binary.
       3 triangular unreferenced faces, zone 11, binary.
       3 triangular unreferenced faces, zone  4, binary.
       4 triangular unreferenced faces, zone  5, binary.
       2 triangular unreferenced faces, zone 12, binary.
       2 triangular unreferenced faces, zone 13, binary.
       2 triangular unreferenced faces, zone 14, binary.
       5 triangular unreferenced faces, zone 15, binary.
      22 triangular unreferenced faces, zone 16, binary.
       2 triangular unreferenced faces, zone 17, binary.
       2 triangular unreferenced faces, zone 21, binary.
       4 triangular unreferenced faces, zone 22, binary.
       2 triangular unreferenced faces, zone 23, binary.
       2 triangular unreferenced faces, zone 24, binary.
       6 triangular unreferenced faces, zone 25, binary.
       2 triangular unreferenced faces, zone 26, binary.
       2 triangular unreferenced faces, zone 27, binary.
       4 triangular unreferenced faces, zone 28, binary.
       2 triangular unreferenced faces, zone 29, binary.
       2 triangular unreferenced faces, zone 31, binary.
       2 triangular unreferenced faces, zone 32, binary.
       4 triangular unreferenced faces, zone 33, binary.
       2 triangular unreferenced faces, zone 34, binary.
       2 triangular unreferenced faces, zone 35, binary.
       6 triangular unreferenced faces, zone 36, binary.
       2 triangular unreferenced faces, zone 37, binary.
       2 triangular unreferenced faces, zone 38, binary.
       4 triangular unreferenced faces, zone 39, binary.
       2 triangular unreferenced faces, zone 41, binary.
       2 triangular unreferenced faces, zone 42, binary.
       2 triangular unreferenced faces, zone 43, binary.
      14 triangular unreferenced faces, zone 44, binary.
       2 triangular unreferenced faces, zone 45, binary.
       2 triangular unreferenced faces, zone 46, binary.
       5 triangular unreferenced faces, zone 47, binary.
       2 triangular unreferenced faces, zone 48, binary.
       2 triangular unreferenced faces, zone 50, binary.
       8 triangular unreferenced faces, zone 51, binary.
      31 triangular unreferenced faces, zone 18, binary.

	distributing mesh
		parts................................................,
		faces................................................,
		nodes................................................,
Info: The mesh contains elements that are invalid or of poor quality.

      A different numerical scheme will be applied to these elements,
      which may affect the quality of the solution. It is recommended
      that you consider removing the invalid and poor quality elements
      in the mesh.

      For more information on the invalid and poor quality elements,
      please use the following TUI commands:

      /mesh/check
      /mesh/repair-improve/report-poor-elements.Done.


> /solve/report-files/edit c_x_y file-name "/net/scratch/people/plgpawwier/Out/C_U_11.out" name "C_U_11" quit

> /solve/report-files/edit c_x_y_components file-name "/net/scratch/people/plgpawwier/Out/C_U_11_components.out" name "C_U_11_components" quit

> /file/auto-save/root-name "/net/scratch/people/plgpawwier/C_U_11"

> /mesh/adapt/refinement-criteria "velo_curv001"

> /mesh/adapt/set/minimum-cell-volume 1

> /mesh/adapt/set/minimum-cell-quality 0.03

> /mesh/scale 0.001 0.001 0.001

> /mesh/quality

Mesh Quality:

Minimum Orthogonal Quality =  3.21119e-02 cell 597 on zone 9281 (ID: 10358293 on partition: 5) at location ( 1.06956e+00  3.50700e-02  9.84296e-01)
(To improve Orthogonal quality , use "Inverse Orthogonal Quality" in Fluent Meshing,
 where Inverse Orthogonal Quality = 1 - Orthogonal Quality)

Maximum Aspect Ratio =  1.42933e+04 cell 614995 on zone 9281 (ID: 26000242 on partition: 43) at location ( 1.38706e+01  8.75162e-01  5.00000e-06)

> /solve/iterate 250 
  iter  continuity  x-velocity  y-velocity  z-velocity           k       omega  he-in-inst  drag-insta  chlodnica-      down-f      drag-f    df-insta     balance      d-conv     df-conv     time/iter

Adapting mesh...
  Refinement expression: velo_curv001
  Coarsening expression: 
done.
     1  1.0000e+00  3.3054e-04  5.3108e-05  3.5548e-04  1.5325e+00  2.9384e+02 -2.0404e-01  8.4392e+02 -2.0404e-01  1.3226e+02  8.4392e+02  1.3226e+02 -1.3944e+00                          2:13:57  249
     2  1.0000e+00  4.4763e-04  1.0138e-04  2.6108e-04  9.2105e-01  4.9691e-01 -1.8312e-01  6.2052e+02 -1.9358e-01  1.5255e+02  7.3222e+02  1.7284e+02 -9.9893e-01  1.5256e-01  1.3298e-01  2:01:09  248
     3  4.7460e-01  3.5988e-04  1.1555e-04  2.2154e-04  8.2407e-01  4.9386e-01 -1.8644e-01  3.9325e+02 -1.9120e-01  1.7307e+02  6.1923e+02  2.1410e+02 -6.9925e-01  1.8247e-01  1.1855e-01  1:50:32  247
     4  7.4683e-01  2.8903e-04  1.1453e-04  1.8394e-04  5.7777e-01  4.8717e-01 -1.8518e-01  2.5921e+02 -1.8970e-01  1.8759e+02  5.2922e+02  2.3114e+02 -4.9371e-01  1.7007e-01  7.7400e-02  1:40:48  246
     5  9.0608e-01  2.3651e-04  1.0954e-04  1.5350e-04  2.4777e-01  4.7233e-01 -1.8993e-01  1.7487e+02 -1.8974e-01  1.9798e+02  4.5835e+02  2.3954e+02 -3.4283e-01  1.5462e-01  5.2482e-02  1:32:12  245
     6  8.7174e-01  2.0254e-04  1.0251e-04  1.2729e-04  7.1131e-02  4.3990e-01 -1.9529e-01  1.2219e+02 -1.9067e-01  2.0598e+02  4.0233e+02  2.4602e+02 -2.2617e-01  1.3926e-01  3.8872e-02  1:25:23  244
     7  7.5780e-01  1.8710e-04  9.8189e-05  1.1229e-04  2.0817e-02  3.7596e-01 -1.9876e-01  9.0962e+01 -1.9182e-01  2.1228e+02  3.5785e+02  2.5005e+02 -1.3362e-01  1.2430e-01  2.9653e-02  1:19:50  243
     8  6.3040e-01  1.8198e-04  9.8537e-05  1.1174e-04  8.5840e-03  2.7447e-01 -2.0134e-01  7.3917e+01 -1.9301e-01  2.1737e+02  3.2235e+02  2.5298e+02 -5.8883e-02  1.1010e-01  2.3404e-02  1:15:24  242
     9  5.1069e-01  1.7944e-04  9.9736e-05  1.1330e-04  5.1547e-03  1.6208e-01 -2.0270e-01  6.6380e+01 -1.9409e-01  2.2155e+02  2.9391e+02  2.5503e+02  2.1177e-03  9.6769e-02  1.8888e-02  1:11:49  241
    10  4.0211e-01  1.7685e-04  1.0031e-04  1.1377e-04  3.8661e-03  7.8401e-02 -2.0347e-01  6.4695e+01 -1.9503e-01  2.2499e+02  2.7099e+02  2.5595e+02  5.2308e-02  8.4585e-02  1.5289e-02  1:09:28  240
    11  3.1071e-01  1.7378e-04  1.0046e-04  1.1352e-04  3.2465e-03  3.3337e-02 -2.0412e-01  6.6467e+01 -1.9585e-01  2.2777e+02  2.5240e+02  2.5561e+02  9.3864e-02  7.3666e-02  1.2223e-02  1:07:59  239

  iter  continuity  x-velocity  y-velocity  z-velocity           k       omega  he-in-inst  drag-insta  chlodnica-      down-f      drag-f    df-insta     balance      d-conv     df-conv     time/iter
    12  2.3946e-01  1.7054e-04  1.0046e-04  1.1310e-04  2.9853e-03  1.3281e-02 -2.0532e-01  7.0443e+01 -1.9664e-01  2.2993e+02  2.3723e+02  2.5371e+02  1.2838e-01  6.3915e-02  9.3995e-03  1:08:47  238
    13  1.9283e-01  1.6821e-04  1.0160e-04  1.1412e-04  3.0021e-03  5.1636e-03 -2.0783e-01  7.4985e+01 -1.9750e-01  2.3156e+02  2.2475e+02  2.5103e+02  1.5717e-01  5.5531e-02  7.0086e-03  1:09:47  237
    14  1.8026e-01  1.6540e-04  1.0211e-04  1.1419e-04  3.3059e-03  2.0394e-03 -2.1057e-01  7.9401e+01 -1.9844e-01  2.3275e+02  2.1437e+02  2.4819e+02  1.8128e-01  4.8431e-02  5.1034e-03  1:10:04  236
    15  1.8711e-01  1.6390e-04  1.0246e-04  1.1437e-04  3.8930e-03  8.6249e-04 -2.0901e-01  8.3404e+01 -1.9914e-01  2.3357e+02  2.0564e+02  2.4516e+02  2.0153e-01  4.2458e-02  3.5434e-03  1:10:46  235
    16  1.9354e-01  1.6275e-04  1.0249e-04  1.1428e-04  4.7636e-03  4.2053e-04 -2.0821e-01  8.6666e+01 -1.9971e-01  2.3407e+02  1.9820e+02  2.4150e+02  2.1862e-01  3.7516e-02  2.1164e-03  1:10:52  234
    17  1.9676e-01  1.6220e-04  1.0220e-04  1.1396e-04  5.9525e-03  2.4625e-04 -2.0770e-01  8.9056e+01 -2.0018e-01  2.3424e+02  1.9178e+02  2.3695e+02  2.3314e-01  3.3478e-02  7.2334e-04  1:10:38  233
    18  1.9605e-01  1.6314e-04  1.0191e-04  1.1403e-04  7.5517e-03  1.6499e-04 -2.0712e-01  9.0713e+01 -2.0056e-01  2.3411e+02  1.8617e+02  2.3187e+02  2.4556e-01  3.0161e-02  5.6262e-04  1:09:50  232
    19  1.9226e-01  1.6599e-04  1.0201e-04  1.1501e-04  9.5552e-03  1.2323e-04 -2.0752e-01  9.1760e+01 -2.0093e-01  2.3370e+02  1.8120e+02  2.2645e+02  2.5626e-01  2.7422e-02  1.7239e-03  1:08:34  231
    20  1.8762e-01  1.6958e-04  1.0229e-04  1.1645e-04  1.1963e-02  1.0099e-04 -2.0850e-01  9.2179e+01 -2.0131e-01  2.3307e+02  1.7675e+02  2.2102e+02  2.6555e-01  2.5183e-02  2.7218e-03  1:07:30  230
    21  1.8271e-01  1.7244e-04  1.0267e-04  1.1771e-04  1.4704e-02  8.8843e-05 -2.0922e-01  9.2098e+01 -2.0169e-01  2.3226e+02  1.7272e+02  2.1612e+02  2.7370e-01  2.3338e-02  3.4757e-03  1:06:33  229
    22  1.7799e-01  1.7467e-04  1.0281e-04  1.1859e-04  1.7693e-02  8.3828e-05 -2.1140e-01  9.1677e+01 -2.0213e-01  2.3134e+02  1.6903e+02  2.1207e+02  2.8091e-01  2.1793e-02  3.9669e-03  1:05:52  228

  iter  continuity  x-velocity  y-velocity  z-velocity           k       omega  he-in-inst  drag-insta  chlodnica-      down-f      drag-f    df-insta     balance      d-conv     df-conv     time/iter
    23  1.7401e-01  1.7616e-04  1.0297e-04  1.1916e-04  2.0414e-02  8.4518e-05 -2.1402e-01  9.0991e+01 -2.0264e-01  2.3037e+02  1.6564e+02  2.0903e+02  2.8735e-01  2.0485e-02  4.2112e-03  1:05:09  227
    24  1.7107e-01  1.7664e-04  1.0294e-04  1.1935e-04  2.2520e-02  8.9613e-05 -2.1466e-01  9.0166e+01 -2.0314e-01  2.2938e+02  1.6250e+02  2.0652e+02  2.9317e-01  1.9353e-02  4.3338e-03  1:04:40  226
    25  1.6921e-01  1.7633e-04  1.0292e-04  1.1941e-04  2.3753e-02  9.6005e-05 -2.1351e-01  8.9267e+01 -2.0356e-01  2.2838e+02  1.5957e+02  2.0435e+02  2.9851e-01  1.8357e-02  4.3843e-03  1:03:34  225
    26  1.6823e-01  1.7559e-04  1.0269e-04  1.1931e-04  2.4253e-02  1.0159e-04 -2.1359e-01  8.8348e+01 -2.0394e-01  2.2740e+02  1.5683e+02  2.0288e+02  3.0348e-01  1.7466e-02  4.3134e-03  1:02:50  224
    27  1.6655e-01  1.7456e-04  1.0224e-04  1.1908e-04  2.4031e-02  1.0346e-04 -2.1373e-01  8.7489e+01 -2.0431e-01  2.2647e+02  1.5426e+02  2.0247e+02  3.0817e-01  1.6648e-02  4.0761e-03  1:02:19  223
    28  1.6378e-01  1.7289e-04  1.0176e-04  1.1835e-04  2.3218e-02  1.0250e-04 -2.1244e-01  8.6848e+01 -2.0460e-01  2.2564e+02  1.5185e+02  2.0308e+02  3.1268e-01  1.5855e-02  3.7027e-03  1:01:43  222
    29  1.6013e-01  1.7057e-04  1.0096e-04  1.1735e-04  2.2003e-02  9.9045e-05 -2.1091e-01  8.6388e+01 -2.0482e-01  2.2490e+02  1.4960e+02  2.0426e+02  3.1705e-01  1.5090e-02  3.2780e-03  1:01:09  221
    30  1.5555e-01  1.6728e-04  9.9420e-05  1.1574e-04  2.0606e-02  9.4257e-05 -2.0985e-01  8.5958e+01 -2.0498e-01  2.2426e+02  1.4747e+02  2.0576e+02  3.2127e-01  1.4384e-02  2.8458e-03  1:00:30  220
    31  1.5021e-01  1.6347e-04  9.7462e-05  1.1354e-04  1.9167e-02  8.8839e-05 -2.0834e-01  8.5567e+01 -2.0509e-01  2.2373e+02  1.4548e+02  2.0760e+02  3.2535e-01  1.3727e-02  2.4022e-03  1:00:01  219
    32  1.4415e-01  1.5968e-04  9.5364e-05  1.1114e-04  1.7788e-02  8.3454e-05 -2.0751e-01  8.5301e+01 -2.0517e-01  2.2330e+02  1.4360e+02  2.0997e+02  3.2928e-01  1.3096e-02  1.9249e-03  0:59:29  218
    33  1.3775e-01  1.5610e-04  9.3165e-05  1.0880e-04  1.6527e-02  7.8073e-05 -2.0673e-01  8.5082e+01 -2.0521e-01  2.2297e+02  1.4182e+02  2.1261e+02  3.3307e-01  1.2503e-02  1.4523e-03  0:59:05  217

  iter  continuity  x-velocity  y-velocity  z-velocity           k       omega  he-in-inst  drag-insta  chlodnica-      down-f      drag-f    df-insta     balance      d-conv     df-conv     time/iter
    34  1.3140e-01  1.5261e-04  9.0950e-05  1.0623e-04  1.5350e-02  7.2924e-05 -2.0496e-01  8.4876e+01 -2.0521e-01  2.2274e+02  1.4015e+02  2.1514e+02  3.3675e-01  1.1951e-02  1.0344e-03  0:58:39  216
    35  1.2530e-01  1.4905e-04  8.8535e-05  1.0341e-04  1.4242e-02  6.9308e-05 -2.0319e-01  8.4797e+01 -2.0515e-01  2.2259e+02  1.3857e+02  2.1743e+02  3.4030e-01  1.1413e-02  6.8215e-04  0:58:22  215
    36  1.1933e-01  1.4543e-04  8.6068e-05  1.0025e-04  1.3180e-02  6.6428e-05 -2.0121e-01  8.4882e+01 -2.0504e-01  2.2251e+02  1.3708e+02  2.1965e+02  3.4372e-01  1.0879e-02  3.6736e-04  0:58:01  214
    37  1.1392e-01  1.4189e-04  8.3607e-05  9.7085e-05  1.2137e-02  6.3834e-05 -1.9908e-01  8.5167e+01 -2.0488e-01  2.2250e+02  1.3567e+02  2.2203e+02  3.4702e-01  1.0341e-02  5.8156e-05  0:57:41  213
    38  1.0877e-01  1.3822e-04  8.1198e-05  9.3759e-05  1.1181e-02  6.1566e-05 -1.9756e-01  8.5659e+01 -2.0469e-01  2.2255e+02  1.3436e+02  2.2461e+02  3.5022e-01  9.7959e-03  2.5025e-04  0:57:50  212
    39  1.0380e-01  1.3443e-04  7.8810e-05  9.0492e-05  1.0323e-02  5.9376e-05 -1.9705e-01  8.6299e+01 -2.0449e-01  2.2268e+02  1.3312e+02  2.2740e+02  3.5332e-01  9.2563e-03  5.5813e-04  0:57:29  211
    40  9.9563e-02  1.3035e-04  7.6310e-05  8.7367e-05  9.5472e-03  5.7214e-05 -1.9645e-01  8.7005e+01 -2.0429e-01  2.2287e+02  1.3197e+02  2.3029e+02  3.5635e-01  8.7365e-03  8.5459e-04  0:57:35  210
    41  9.5484e-02  1.2596e-04  7.3735e-05  8.4187e-05  8.8088e-03  5.5003e-05 -1.9616e-01  8.7687e+01 -2.0409e-01  2.2312e+02  1.3089e+02  2.3310e+02  3.5930e-01  8.2520e-03  1.1185e-03  0:57:14  209
    42  9.1391e-02  1.2125e-04  7.0916e-05  8.0930e-05  8.1184e-03  5.3127e-05 -1.9653e-01  8.8305e+01 -2.0391e-01  2.2342e+02  1.2988e+02  2.3571e+02  3.6218e-01  7.8071e-03  1.3424e-03  0:56:51  208
    43  8.7229e-02  1.1640e-04  6.7950e-05  7.7708e-05  7.4824e-03  5.1634e-05 -1.9690e-01  8.8824e+01 -2.0375e-01  2.2376e+02  1.2892e+02  2.3804e+02  3.6499e-01  7.4054e-03  1.5202e-03  0:56:22  207
    44  8.3330e-02  1.1158e-04  6.5166e-05  7.4629e-05  6.9435e-03  5.0393e-05 -1.9710e-01  8.9262e+01 -2.0360e-01  2.2413e+02  1.2802e+02  2.4011e+02  3.6774e-01  7.0408e-03  1.6582e-03  0:56:01  206

  iter  continuity  x-velocity  y-velocity  z-velocity           k       omega  he-in-inst  drag-insta  chlodnica-      down-f      drag-f    df-insta     balance      d-conv     df-conv     time/iter
    45  7.9500e-02  1.0701e-04  6.2653e-05  7.1665e-05  6.4619e-03  4.9319e-05 -1.9735e-01  8.9633e+01 -2.0346e-01  2.2452e+02  1.2717e+02  2.4198e+02  3.7042e-01  6.7081e-03  1.7673e-03  0:55:35  205
    46  7.5860e-02  1.0270e-04  6.0247e-05  6.8735e-05  6.0362e-03  4.8181e-05 -1.9768e-01  8.9937e+01 -2.0333e-01  2.2494e+02  1.2636e+02  2.4366e+02  3.7303e-01  6.4054e-03  1.8494e-03  0:55:16  204
    47  7.2548e-02  9.8540e-05  5.7817e-05  6.5937e-05  5.6648e-03  4.6863e-05 -1.9801e-01  9.0173e+01 -2.0322e-01  2.2537e+02  1.2559e+02  2.4514e+02  3.7557e-01  6.1303e-03  1.9073e-03  0:54:52  203
    48  6.9497e-02  9.4484e-05  5.5416e-05  6.3294e-05  5.3256e-03  4.5453e-05 -1.9828e-01  9.0345e+01 -2.0312e-01  2.2581e+02  1.2485e+02  2.4639e+02  3.7803e-01  5.8807e-03  1.9390e-03  0:54:36  202
    49  6.6645e-02  9.0590e-05  5.3135e-05  6.0805e-05  5.0121e-03  4.4071e-05 -1.9867e-01  9.0474e+01 -2.0303e-01  2.2625e+02  1.2415e+02  2.4745e+02  3.8042e-01  5.6515e-03  1.9525e-03  0:54:15  201

Adapting mesh...
  Refinement expression: velo_curv001
  Coarsening expression: 
done.
    50  6.3879e-02  8.6816e-05  5.1007e-05  5.8461e-05  4.7223e-03  4.2685e-05 -1.9919e-01  9.0581e+01 -2.0295e-01  2.2669e+02  1.2348e+02  2.4843e+02  3.8273e-01  5.4376e-03  1.9567e-03  0:54:54  200
    51  6.1193e-02  8.3198e-05  4.9082e-05  5.6268e-05  4.4555e-03  4.1423e-05 -1.9951e-01  9.0697e+01 -2.0288e-01  2.2714e+02  1.2284e+02  2.4940e+02  3.8497e-01  5.2332e-03  1.9600e-03  0:54:31  199
    52  5.8719e-02  7.9850e-05  4.7382e-05  5.4225e-05  4.2163e-03  4.0184e-05 -1.9961e-01  9.0846e+01 -2.0282e-01  2.2759e+02  1.2222e+02  2.5038e+02  3.8714e-01  5.0338e-03  1.9641e-03  0:54:01  198
    53  5.6490e-02  7.6860e-05  4.5921e-05  5.2305e-05  4.0074e-03  3.9124e-05 -1.9963e-01  9.1019e+01 -2.0276e-01  2.2803e+02  1.2163e+02  2.5135e+02  3.8925e-01  4.8403e-03  1.9662e-03  0:53:49  197
    54  5.4601e-02  7.4103e-05  4.4659e-05  5.0552e-05  3.8196e-03  3.8059e-05 -1.9972e-01  9.1177e+01 -2.0270e-01  2.2848e+02  1.2107e+02  2.5226e+02  3.9130e-01  4.6587e-03  1.9636e-03  0:53:20  196
    55  5.2844e-02  7.1525e-05  4.3545e-05  4.8948e-05  3.6403e-03  3.6990e-05 -2.0022e-01  9.1293e+01 -2.0266e-01  2.2893e+02  1.2053e+02  2.5311e+02  3.9329e-01  4.4920e-03  1.9561e-03  0:53:00  195

  iter  continuity  x-velocity  y-velocity  z-velocity           k       omega  he-in-inst  drag-insta  chlodnica-      down-f      drag-f    df-insta     balance      d-conv     df-conv     time/iter
    56  5.1251e-02  6.9009e-05  4.2479e-05  4.7391e-05  3.4639e-03  3.5754e-05 -2.0103e-01  9.1366e+01 -2.0263e-01  2.2938e+02  1.2001e+02  2.5387e+02  3.9523e-01  4.3394e-03  1.9417e-03  0:53:00  194
    57  4.9907e-02  6.6495e-05  4.1405e-05  4.5883e-05  3.2959e-03  3.4420e-05 -2.0153e-01  9.1412e+01 -2.0261e-01  2.2982e+02  1.1951e+02  2.5454e+02  3.9711e-01  4.1980e-03  1.9213e-03  0:52:58  193
    58  4.8580e-02  6.4056e-05  4.0299e-05  4.4452e-05  3.1384e-03  3.3133e-05 -2.0174e-01  9.1463e+01 -2.0259e-01  2.3025e+02  1.1902e+02  2.5514e+02  3.9894e-01  4.0623e-03  1.8964e-03  0:52:32  192
    59  4.7245e-02  6.1719e-05  3.9152e-05  4.3051e-05  2.9917e-03  3.2090e-05 -2.0196e-01  9.1528e+01 -2.0258e-01  2.3068e+02  1.1856e+02  2.5568e+02  4.0072e-01  3.9307e-03  1.8678e-03  0:52:07  191
    60  4.5973e-02  5.9418e-05  3.7951e-05  4.1643e-05  2.8530e-03  3.0993e-05 -2.0223e-01  9.1594e+01 -2.0258e-01  2.3111e+02  1.1811e+02  2.5618e+02  4.0245e-01  3.8049e-03  1.8386e-03  0:51:47  190
    61  4.4733e-02  5.7106e-05  3.6669e-05  4.0237e-05  2.7181e-03  2.9971e-05 -2.0230e-01  9.1638e+01 -2.0257e-01  2.3153e+02  1.1767e+02  2.5665e+02  4.0413e-01  3.6876e-03  1.8083e-03  0:51:30  189
    62  4.3340e-02  5.4848e-05  3.5312e-05  3.8821e-05  2.5858e-03  2.9044e-05 -2.0236e-01  9.1649e+01 -2.0257e-01  2.3194e+02  1.1725e+02  2.5709e+02  4.0576e-01  3.5798e-03  1.7777e-03  0:51:08  188
    63  4.1927e-02  5.2686e-05  3.3988e-05  3.7398e-05  2.4644e-03  2.8142e-05 -2.0220e-01  9.1651e+01 -2.0256e-01  2.3235e+02  1.1685e+02  2.5754e+02  4.0735e-01  3.4780e-03  1.7487e-03  0:50:43  187
    64  4.0544e-02  5.0553e-05  3.2641e-05  3.5952e-05  2.3541e-03  2.7530e-05 -2.0205e-01  9.1664e+01 -2.0255e-01  2.3275e+02  1.1645e+02  2.5797e+02  4.0890e-01  3.3790e-03  1.7205e-03  0:50:25  186
    65  3.9192e-02  4.8498e-05  3.1378e-05  3.4593e-05  2.2507e-03  2.7086e-05 -2.0191e-01  9.1682e+01 -2.0255e-01  2.3314e+02  1.1607e+02  2.5843e+02  4.1041e-01  3.2834e-03  1.6950e-03  0:50:11  185
    66  3.7885e-02  4.6591e-05  3.0193e-05  3.3290e-05  2.1553e-03  2.6566e-05 -2.0179e-01  9.1695e+01 -2.0253e-01  2.3353e+02  1.1570e+02  2.5893e+02  4.1189e-01  3.1923e-03  1.6728e-03  0:49:52  184

  iter  continuity  x-velocity  y-velocity  z-velocity           k       omega  he-in-inst  drag-insta  chlodnica-      down-f      drag-f    df-insta     balance      d-conv     df-conv     time/iter
    67  3.6669e-02  4.4851e-05  2.9088e-05  3.2024e-05  2.0740e-03  2.6010e-05 -2.0171e-01  9.1717e+01 -2.0252e-01  2.3392e+02  1.1535e+02  2.5946e+02  4.1333e-01  3.1038e-03  1.6545e-03  0:49:30  183
    68  3.5558e-02  4.3276e-05  2.8125e-05  3.0816e-05  2.0096e-03  2.5587e-05 -2.0164e-01  9.1765e+01 -2.0251e-01  2.3430e+02  1.1500e+02  2.6003e+02  4.1474e-01  3.0155e-03  1.6386e-03  0:49:14  182
    69  3.4563e-02  4.1957e-05  2.7278e-05  2.9808e-05  1.9551e-03  2.5409e-05 -2.0161e-01  9.1817e+01 -2.0250e-01  2.3468e+02  1.1466e+02  2.6058e+02  4.1613e-01  2.9300e-03  1.6224e-03  0:48:52  181
    70  3.3779e-02  4.0782e-05  2.6592e-05  2.8883e-05  1.8975e-03  2.5057e-05 -2.0156e-01  9.1828e+01 -2.0248e-01  2.3506e+02  1.1434e+02  2.6110e+02  4.1748e-01  2.8531e-03  1.6056e-03  0:49:01  180
    71  3.3052e-02  3.9641e-05  2.5874e-05  2.7975e-05  1.8503e-03  2.4727e-05 -2.0154e-01  9.1819e+01 -2.0247e-01  2.3544e+02  1.1402e+02  2.6165e+02  4.1882e-01  2.7815e-03  1.5908e-03  0:48:37  179
    72  3.2333e-02  3.8615e-05  2.5241e-05  2.7150e-05  1.8153e-03  2.4555e-05 -2.0153e-01  9.1816e+01 -2.0246e-01  2.3581e+02  1.1371e+02  2.6220e+02  4.2013e-01  2.7120e-03  1.5764e-03  0:48:37  178
    73  3.1723e-02  3.7814e-05  2.4726e-05  2.6497e-05  1.7879e-03  2.4465e-05 -2.0153e-01  9.1814e+01 -2.0244e-01  2.3618e+02  1.1341e+02  2.6271e+02  4.2142e-01  2.6449e-03  1.5604e-03  0:48:13  177
    74  3.1214e-02  3.7139e-05  2.4316e-05  2.5948e-05  1.7645e-03  2.4187e-05 -2.0154e-01  9.1792e+01 -2.0243e-01  2.3654e+02  1.1312e+02  2.6317e+02  4.2269e-01  2.5827e-03  1.5423e-03  0:47:48  176
    75  3.0752e-02  3.6495e-05  2.3918e-05  2.5447e-05  1.7472e-03  2.3828e-05 -2.0164e-01  9.1763e+01 -2.0242e-01  2.3690e+02  1.1283e+02  2.6360e+02  4.2394e-01  2.5236e-03  1.5227e-03  0:47:30  175
    76  3.0311e-02  3.5925e-05  2.3604e-05  2.4981e-05  1.7391e-03  2.3493e-05 -2.0181e-01  9.1735e+01 -2.0241e-01  2.3726e+02  1.1256e+02  2.6396e+02  4.2517e-01  2.4665e-03  1.5009e-03  0:47:07  174
    77  2.9912e-02  3.5440e-05  2.3325e-05  2.4631e-05  1.7360e-03  2.3299e-05 -2.0198e-01  9.1702e+01 -2.0241e-01  2.3761e+02  1.1229e+02  2.6424e+02  4.2639e-01  2.4121e-03  1.4748e-03  0:46:55  173

  iter  continuity  x-velocity  y-velocity  z-velocity           k       omega  he-in-inst  drag-insta  chlodnica-      down-f      drag-f    df-insta     balance      d-conv     df-conv     time/iter
    78  2.9578e-02  3.5025e-05  2.3101e-05  2.4411e-05  1.7410e-03  2.3192e-05 -2.0219e-01  9.1661e+01 -2.0240e-01  2.3795e+02  1.1202e+02  2.6439e+02  4.2758e-01  2.3604e-03  1.4431e-03  0:46:32  172
    79  2.9294e-02  3.4726e-05  2.2969e-05  2.4205e-05  1.7489e-03  2.3067e-05 -2.0239e-01  9.1620e+01 -2.0240e-01  2.3829e+02  1.1176e+02  2.6444e+02  4.2875e-01  2.3106e-03  1.4069e-03  0:46:12  171
    80  2.9072e-02  3.4491e-05  2.2844e-05  2.4040e-05  1.7558e-03  2.2956e-05 -2.0261e-01  9.1590e+01 -2.0241e-01  2.3861e+02  1.1151e+02  2.6438e+02  4.2990e-01  2.2613e-03  1.3669e-03  0:45:52  170
    81  2.8917e-02  3.4279e-05  2.2749e-05  2.3873e-05  1.7607e-03  2.2930e-05 -2.0280e-01  9.1563e+01 -2.0241e-01  2.3893e+02  1.1126e+02  2.6424e+02  4.3103e-01  2.2133e-03  1.3243e-03  0:45:39  169
    82  2.8810e-02  3.4046e-05  2.2616e-05  2.3742e-05  1.7572e-03  2.2899e-05 -2.0293e-01  9.1526e+01 -2.0242e-01  2.3924e+02  1.1102e+02  2.6403e+02  4.3214e-01  2.1681e-03  1.2793e-03  0:45:20  168
    83  2.8719e-02  3.3772e-05  2.2453e-05  2.3554e-05  1.7523e-03  2.2875e-05 -2.0301e-01  9.1483e+01 -2.0242e-01  2.3953e+02  1.1079e+02  2.6376e+02  4.3322e-01  2.1252e-03  1.2335e-03  0:45:01  167
    84  2.8655e-02  3.3464e-05  2.2286e-05  2.3308e-05  1.7492e-03  2.2858e-05 -2.0304e-01  9.1433e+01 -2.0243e-01  2.3982e+02  1.1056e+02  2.6347e+02  4.3427e-01  2.0841e-03  1.1884e-03  0:44:42  166
    85  2.8583e-02  3.3216e-05  2.2051e-05  2.3116e-05  1.7415e-03  2.2901e-05 -2.0307e-01  9.1381e+01 -2.0244e-01  2.4009e+02  1.1033e+02  2.6319e+02  4.3530e-01  2.0449e-03  1.1452e-03  0:44:24  165
    86  2.8445e-02  3.2882e-05  2.1785e-05  2.2779e-05  1.7287e-03  2.2821e-05 -2.0300e-01  9.1334e+01 -2.0245e-01  2.4036e+02  1.1011e+02  2.6290e+02  4.3630e-01  2.0062e-03  1.1032e-03  0:44:11  164
    87  2.8229e-02  3.2466e-05  2.1458e-05  2.2477e-05  1.7172e-03  2.2481e-05 -2.0293e-01  9.1291e+01 -2.0245e-01  2.4061e+02  1.0990e+02  2.6261e+02  4.3727e-01  1.9685e-03  1.0630e-03  0:43:52  163
    88  2.8000e-02  3.2034e-05  2.1090e-05  2.2075e-05  1.7089e-03  2.2160e-05 -2.0289e-01  9.1261e+01 -2.0246e-01  2.4086e+02  1.0968e+02  2.6237e+02  4.3821e-01  1.9305e-03  1.0265e-03  0:43:38  162

  iter  continuity  x-velocity  y-velocity  z-velocity           k       omega  he-in-inst  drag-insta  chlodnica-      down-f      drag-f    df-insta     balance      d-conv     df-conv     time/iter
    89  2.7783e-02  3.1746e-05  2.0778e-05  2.1577e-05  1.6868e-03  2.2056e-05 -2.0283e-01  9.1233e+01 -2.0246e-01  2.4110e+02  1.0948e+02  2.6219e+02  4.3913e-01  1.8937e-03  9.9407e-04  0:43:27  161
    90  2.7550e-02  3.1355e-05  2.0427e-05  2.1207e-05  1.6592e-03  2.2076e-05 -2.0273e-01  9.1224e+01 -2.0246e-01  2.4133e+02  1.0927e+02  2.6204e+02  4.4002e-01  1.8559e-03  9.6415e-04  0:43:11  160
    91  2.7277e-02  3.0908e-05  2.0147e-05  2.0774e-05  1.6444e-03  2.1859e-05 -2.0265e-01  9.1220e+01 -2.0247e-01  2.4156e+02  1.0908e+02  2.6189e+02  4.4089e-01  1.8189e-03  9.3546e-04  0:42:51  159
    92  2.6982e-02  3.0562e-05  1.9746e-05  2.0499e-05  1.6302e-03  2.1804e-05 -2.0263e-01  9.1205e+01 -2.0247e-01  2.4178e+02  1.0888e+02  2.6178e+02  4.4174e-01  1.7839e-03  9.0905e-04  0:42:34  158
    93  2.6703e-02  3.0376e-05  1.9446e-05  2.0194e-05  1.6119e-03  2.1620e-05 -2.0266e-01  9.1225e+01 -2.0247e-01  2.4199e+02  1.0869e+02  2.6171e+02  4.4256e-01  1.7468e-03  8.8573e-04  0:42:16  157
    94  2.6462e-02  3.0141e-05  1.9113e-05  1.9918e-05  1.5891e-03  2.1773e-05 -2.0266e-01  9.1291e+01 -2.0247e-01  2.4220e+02  1.0851e+02  2.6166e+02  4.4335e-01  1.7059e-03  8.6392e-04  0:42:00  156
    95  2.6192e-02  2.9836e-05  1.8872e-05  1.9646e-05  1.5724e-03  2.1569e-05 -2.0271e-01  9.1362e+01 -2.0247e-01  2.4241e+02  1.0833e+02  2.6161e+02  4.4412e-01  1.6659e-03  8.4274e-04  0:41:42  155
    96  2.5856e-02  2.9499e-05  1.8504e-05  1.9366e-05  1.5501e-03  2.1339e-05 -2.0278e-01  9.1418e+01 -2.0248e-01  2.4261e+02  1.0815e+02  2.6155e+02  4.4486e-01  1.6285e-03  8.2179e-04  0:41:25  154
    97  2.5490e-02  2.9101e-05  1.8146e-05  1.9019e-05  1.5211e-03  2.1034e-05 -2.0286e-01  9.1447e+01 -2.0248e-01  2.4280e+02  1.0798e+02  2.6148e+02  4.4558e-01  1.5947e-03  8.0153e-04  0:41:07  153
    98  2.5104e-02  2.8648e-05  1.7673e-05  1.8623e-05  1.4913e-03  2.0784e-05 -2.0287e-01  9.1483e+01 -2.0248e-01  2.4299e+02  1.0781e+02  2.6144e+02  4.4627e-01  1.5611e-03  7.8256e-04  0:40:53  152
    99  2.4674e-02  2.8086e-05  1.7272e-05  1.8133e-05  1.4638e-03  2.0659e-05 -2.0288e-01  9.1524e+01 -2.0249e-01  2.4318e+02  1.0764e+02  2.6143e+02  4.4695e-01  1.5282e-03  7.6609e-04  0:40:39  151

Adapting mesh...
  Refinement expression: velo_curv001
  Coarsening expression: 
done.

  iter  continuity  x-velocity  y-velocity  z-velocity           k       omega  he-in-inst  drag-insta  chlodnica-      down-f      drag-f    df-insta     balance      d-conv     df-conv     time/iter
   100  2.4232e-02  2.7583e-05  1.6848e-05  1.7777e-05  1.4429e-03  2.0751e-05 -2.0286e-01  9.1575e+01 -2.0249e-01  2.4336e+02  1.0748e+02  2.6149e+02  4.4761e-01  1.4952e-03  7.5260e-04  0:41:04  150
   101  2.3815e-02  2.7110e-05  1.6500e-05  1.7360e-05  1.4163e-03  2.0550e-05 -2.0276e-01  9.1621e+01 -2.0250e-01  2.4354e+02  1.0733e+02  2.6162e+02  4.4825e-01  1.4633e-03  7.4245e-04  0:40:47  149
   102  2.3471e-02  2.6600e-05  1.6044e-05  1.6937e-05  1.3947e-03  2.0358e-05 -2.0253e-01  9.1652e+01 -2.0250e-01  2.4372e+02  1.0717e+02  2.6183e+02  4.4889e-01  1.4339e-03  7.3564e-04  0:40:21  148
   103  2.3152e-02  2.6084e-05  1.5638e-05  1.6509e-05  1.3834e-03  2.0497e-05 -2.0221e-01  9.1689e+01 -2.0249e-01  2.4390e+02  1.0702e+02  2.6213e+02  4.4951e-01  1.4046e-03  7.3285e-04  0:40:03  147
   104  2.2843e-02  2.5719e-05  1.5300e-05  1.6206e-05  1.3753e-03  2.0770e-05 -2.0180e-01  9.1765e+01 -2.0249e-01  2.4408e+02  1.0688e+02  2.6252e+02  4.5013e-01  1.3727e-03  7.3344e-04  0:39:39  146
   105  2.2603e-02  2.5392e-05  1.5055e-05  1.5846e-05  1.3630e-03  2.0917e-05 -2.0137e-01  9.1853e+01 -2.0248e-01  2.4426e+02  1.0673e+02  2.6299e+02  4.5074e-01  1.3405e-03  7.3721e-04  0:39:21  145
   106  2.2485e-02  2.5105e-05  1.4769e-05  1.5553e-05  1.3505e-03  2.0813e-05 -2.0089e-01  9.1900e+01 -2.0246e-01  2.4444e+02  1.0659e+02  2.6350e+02  4.5134e-01  1.3128e-03  7.4272e-04  0:38:59  144
   107  2.2398e-02  2.4785e-05  1.4490e-05  1.5260e-05  1.3400e-03  2.0800e-05 -2.0042e-01  9.1931e+01 -2.0244e-01  2.4462e+02  1.0646e+02  2.6400e+02  4.5194e-01  1.2872e-03  7.4753e-04  0:38:41  143
   108  2.2262e-02  2.4505e-05  1.4290e-05  1.5044e-05  1.3292e-03  2.0737e-05 -2.0005e-01  9.1984e+01 -2.0242e-01  2.4481e+02  1.0632e+02  2.6446e+02  4.5253e-01  1.2603e-03  7.5039e-04  0:38:22  142
   109  2.2097e-02  2.4257e-05  1.4148e-05  1.4817e-05  1.3124e-03  2.0789e-05 -1.9976e-01  9.2035e+01 -2.0240e-01  2.4499e+02  1.0619e+02  2.6485e+02  4.5312e-01  1.2342e-03  7.5058e-04  0:38:03  141
   110  2.1970e-02  2.4034e-05  1.4046e-05  1.4643e-05  1.2940e-03  2.0613e-05 -1.9954e-01  9.2027e+01 -2.0237e-01  2.4517e+02  1.0606e+02  2.6514e+02  4.5370e-01  1.2140e-03  7.4697e-04  0:37:48  140

  iter  continuity  x-velocity  y-velocity  z-velocity           k       omega  he-in-inst  drag-insta  chlodnica-      down-f      drag-f    df-insta     balance      d-conv     df-conv     time/iter
   111  2.1889e-02  2.3821e-05  1.3866e-05  1.4611e-05  1.2835e-03  2.0513e-05 -1.9938e-01  9.1978e+01 -2.0234e-01  2.4535e+02  1.0594e+02  2.6536e+02  4.5428e-01  1.1978e-03  7.4113e-04  0:37:28  139
   112  2.1776e-02  2.3632e-05  1.3852e-05  1.4536e-05  1.2786e-03  2.0298e-05 -1.9923e-01  9.1927e+01 -2.0231e-01  2.4553e+02  1.0581e+02  2.6554e+02  4.5484e-01  1.1821e-03  7.3400e-04  0:37:14  138
   113  2.1629e-02  2.3482e-05  1.3747e-05  1.4531e-05  1.2772e-03  2.0228e-05 -1.9919e-01  9.1892e+01 -2.0229e-01  2.4571e+02  1.0569e+02  2.6568e+02  4.5540e-01  1.1653e-03  7.2564e-04  0:36:56  137
   114  2.1492e-02  2.3335e-05  1.3694e-05  1.4546e-05  1.2750e-03  2.0115e-05 -1.9915e-01  9.1840e+01 -2.0226e-01  2.4589e+02  1.0557e+02  2.6579e+02  4.5595e-01  1.1506e-03  7.1606e-04  0:36:45  136
   115  2.1396e-02  2.3280e-05  1.3618e-05  1.4604e-05  1.2745e-03  1.9971e-05 -1.9913e-01  9.1754e+01 -2.0223e-01  2.4606e+02  1.0545e+02  2.6585e+02  4.5649e-01  1.1390e-03  7.0545e-04  0:36:26  135
   116  2.1311e-02  2.3232e-05  1.3600e-05  1.4627e-05  1.2710e-03  1.9969e-05 -1.9914e-01  9.1646e+01 -2.0221e-01  2.4623e+02  1.0533e+02  2.6590e+02  4.5703e-01  1.1295e-03  6.9442e-04  0:36:11  134
   117  2.1217e-02  2.3149e-05  1.3620e-05  1.4645e-05  1.2637e-03  1.9766e-05 -1.9923e-01  9.1535e+01 -2.0218e-01  2.4640e+02  1.0521e+02  2.6594e+02  4.5756e-01  1.1204e-03  6.8354e-04  0:35:52  133
   118  2.1131e-02  2.3057e-05  1.3557e-05  1.4648e-05  1.2595e-03  1.9847e-05 -1.9927e-01  9.1439e+01 -2.0216e-01  2.4657e+02  1.0509e+02  2.6597e+02  4.5808e-01  1.1104e-03  6.7256e-04  0:35:36  132
   119  2.1059e-02  2.3018e-05  1.3568e-05  1.4726e-05  1.2591e-03  1.9804e-05 -1.9930e-01  9.1350e+01 -2.0213e-01  2.4673e+02  1.0498e+02  2.6598e+02  4.5859e-01  1.1000e-03  6.6105e-04  0:35:17  131
   120  2.1015e-02  2.3067e-05  1.3643e-05  1.4658e-05  1.2545e-03  1.9907e-05 -1.9931e-01  9.1243e+01 -2.0211e-01  2.4689e+02  1.0486e+02  2.6597e+02  4.5910e-01  1.0915e-03  6.4937e-04  0:35:02  130
   121  2.0997e-02  2.3007e-05  1.3649e-05  1.4687e-05  1.2515e-03  1.9865e-05 -1.9927e-01  9.1121e+01 -2.0208e-01  2.4705e+02  1.0475e+02  2.6596e+02  4.5960e-01  1.0841e-03  6.3790e-04  0:34:43  129

  iter  continuity  x-velocity  y-velocity  z-velocity           k       omega  he-in-inst  drag-insta  chlodnica-      down-f      drag-f    df-insta     balance      d-conv     df-conv     time/iter
   122  2.0996e-02  2.3034e-05  1.3707e-05  1.4674e-05  1.2468e-03  1.9845e-05 -1.9917e-01  9.1005e+01 -2.0206e-01  2.4720e+02  1.0464e+02  2.6596e+02  4.6010e-01  1.0766e-03  6.2701e-04  0:34:27  128
   123  2.0996e-02  2.2952e-05  1.3689e-05  1.4706e-05  1.2429e-03  1.9996e-05 -1.9898e-01  9.0934e+01 -2.0204e-01  2.4736e+02  1.0452e+02  2.6594e+02  4.6060e-01  1.0658e-03  6.1576e-04  0:34:14  127
   124  2.0988e-02  2.2967e-05  1.3801e-05  1.4796e-05  1.2452e-03  2.0033e-05 -1.9880e-01  9.0871e+01 -2.0201e-01  2.4751e+02  1.0441e+02  2.6588e+02  4.6108e-01  1.0545e-03  6.0368e-04  0:33:55  126
   125  2.1019e-02  2.3052e-05  1.3883e-05  1.4732e-05  1.2494e-03  2.0185e-05 -1.9867e-01  9.0780e+01 -2.0198e-01  2.4765e+02  1.0431e+02  2.6582e+02  4.6157e-01  1.0458e-03  5.9168e-04  0:33:44  125
   126  2.1096e-02  2.3108e-05  1.3952e-05  1.4855e-05  1.2512e-03  2.0103e-05 -1.9857e-01  9.0698e+01 -2.0196e-01  2.4780e+02  1.0420e+02  2.6580e+02  4.6204e-01  1.0364e-03  5.8117e-04  0:33:32  124
   127  2.1200e-02  2.3037e-05  1.4046e-05  1.4813e-05  1.2380e-03  1.9995e-05 -1.9851e-01  9.0627e+01 -2.0193e-01  2.4794e+02  1.0409e+02  2.6580e+02  4.6251e-01  1.0266e-03  5.7167e-04  0:33:15  123
   128  2.1280e-02  2.2792e-05  1.3963e-05  1.4893e-05  1.2328e-03  1.9954e-05 -1.9847e-01  9.0595e+01 -2.0190e-01  2.4808e+02  1.0398e+02  2.6581e+02  4.6297e-01  1.0139e-03  5.6286e-04  0:32:55  122
   129  2.1234e-02  2.2761e-05  1.4035e-05  1.4813e-05  1.2229e-03  1.9992e-05 -1.9855e-01  9.0563e+01 -2.0188e-01  2.4822e+02  1.0388e+02  2.6588e+02  4.6343e-01  1.0016e-03  5.5597e-04  0:32:39  121
   130  2.1185e-02  2.2617e-05  1.3941e-05  1.4735e-05  1.2184e-03  1.9875e-05 -1.9867e-01  9.0568e+01 -2.0185e-01  2.4835e+02  1.0378e+02  2.6606e+02  4.6387e-01  9.8681e-04  5.5259e-04  0:32:20  120
   131  2.1163e-02  2.2510e-05  1.3897e-05  1.4670e-05  1.2114e-03  1.9554e-05 -1.9885e-01  9.0614e+01 -2.0183e-01  2.4849e+02  1.0368e+02  2.6635e+02  4.6431e-01  9.6922e-04  5.5290e-04  0:32:04  119
   132  2.1099e-02  2.2280e-05  1.3741e-05  1.4626e-05  1.2122e-03  1.9494e-05 -1.9900e-01  9.0708e+01 -2.0181e-01  2.4863e+02  1.0358e+02  2.6672e+02  4.6474e-01  9.4863e-04  5.5535e-04  0:31:46  118

  iter  continuity  x-velocity  y-velocity  z-velocity           k       omega  he-in-inst  drag-insta  chlodnica-      down-f      drag-f    df-insta     balance      d-conv     df-conv     time/iter
   133  2.0968e-02  2.2270e-05  1.3747e-05  1.4568e-05  1.2109e-03  1.9429e-05 -1.9924e-01  9.0821e+01 -2.0179e-01  2.4877e+02  1.0348e+02  2.6714e+02  4.6515e-01  9.2695e-04  5.5940e-04  0:31:31  117
   134  2.0821e-02  2.2170e-05  1.3639e-05  1.4380e-05  1.2110e-03  1.9321e-05 -1.9951e-01  9.0940e+01 -2.0177e-01  2.4891e+02  1.0339e+02  2.6760e+02  4.6556e-01  9.0543e-04  5.6460e-04  0:31:13  116
   135  2.0709e-02  2.2126e-05  1.3620e-05  1.4267e-05  1.2099e-03  1.9112e-05 -1.9978e-01  9.1068e+01 -2.0176e-01  2.4905e+02  1.0330e+02  2.6807e+02  4.6596e-01  8.8363e-04  5.6979e-04  0:30:59  115
   136  2.0589e-02  2.2082e-05  1.3593e-05  1.4152e-05  1.2056e-03  1.9044e-05 -2.0004e-01  9.1206e+01 -2.0174e-01  2.4919e+02  1.0321e+02  2.6850e+02  4.6634e-01  8.6155e-04  5.7406e-04  0:30:44  114
   137  2.0467e-02  2.2135e-05  1.3633e-05  1.4112e-05  1.2021e-03  1.9043e-05 -2.0026e-01  9.1336e+01 -2.0173e-01  2.4934e+02  1.0312e+02  2.6889e+02  4.6672e-01  8.4045e-04  5.7673e-04  0:30:26  113
   138  2.0413e-02  2.2172e-05  1.3642e-05  1.3991e-05  1.1949e-03  1.9036e-05 -2.0047e-01  9.1432e+01 -2.0172e-01  2.4948e+02  1.0304e+02  2.6925e+02  4.6708e-01  8.2226e-04  5.7829e-04  0:30:17  112
   139  2.0413e-02  2.2130e-05  1.3632e-05  1.3931e-05  1.1913e-03  1.9002e-05 -2.0069e-01  9.1512e+01 -2.0172e-01  2.4963e+02  1.0296e+02  2.6960e+02  4.6744e-01  8.0543e-04  5.7991e-04  0:29:59  111
   140  2.0391e-02  2.2074e-05  1.3615e-05  1.3806e-05  1.1873e-03  1.8885e-05 -2.0085e-01  9.1588e+01 -2.0171e-01  2.4977e+02  1.0287e+02  2.6993e+02  4.6779e-01  7.8931e-04  5.8073e-04  0:29:44  110
   141  2.0326e-02  2.1975e-05  1.3551e-05  1.3756e-05  1.1829e-03  1.9013e-05 -2.0103e-01  9.1661e+01 -2.0170e-01  2.4992e+02  1.0279e+02  2.7023e+02  4.6812e-01  7.7367e-04  5.8052e-04  0:29:26  109
   142  2.0256e-02  2.1925e-05  1.3494e-05  1.3657e-05  1.1731e-03  1.8941e-05 -2.0120e-01  9.1661e+01 -2.0170e-01  2.5006e+02  1.0272e+02  2.7047e+02  4.6846e-01  7.6326e-04  5.7890e-04  0:29:09  108
   143  2.0179e-02  2.1737e-05  1.3327e-05  1.3596e-05  1.1720e-03  1.9032e-05 -2.0139e-01  9.1621e+01 -2.0170e-01  2.5021e+02  1.0264e+02  2.7071e+02  4.6878e-01  7.5596e-04  5.7716e-04  0:28:52  107

  iter  continuity  x-velocity  y-velocity  z-velocity           k       omega  he-in-inst  drag-insta  chlodnica-      down-f      drag-f    df-insta     balance      d-conv     df-conv     time/iter
   144  2.0053e-02  2.1555e-05  1.3243e-05  1.3479e-05  1.1672e-03  1.8771e-05 -2.0150e-01  9.1559e+01 -2.0170e-01  2.5035e+02  1.0256e+02  2.7093e+02  4.6911e-01  7.5028e-04  5.7488e-04  0:28:37  106
   145  1.9961e-02  2.1258e-05  1.3050e-05  1.3370e-05  1.1639e-03  1.8959e-05 -2.0157e-01  9.1517e+01 -2.0170e-01  2.5049e+02  1.0249e+02  2.7113e+02  4.6943e-01  7.4324e-04  5.7205e-04  0:28:20  105
   146  1.9868e-02  2.0996e-05  1.2930e-05  1.3219e-05  1.1559e-03  1.8707e-05 -2.0164e-01  9.1419e+01 -2.0170e-01  2.5063e+02  1.0241e+02  2.7129e+02  4.6974e-01  7.4014e-04  5.6832e-04  0:28:03  104
   147  1.9766e-02  2.0629e-05  1.2628e-05  1.3057e-05  1.1546e-03  1.8725e-05 -2.0172e-01  9.1302e+01 -2.0170e-01  2.5078e+02  1.0233e+02  2.7145e+02  4.7005e-01  7.3845e-04  5.6471e-04  0:27:45  103
   148  1.9613e-02  2.0422e-05  1.2520e-05  1.2922e-05  1.1392e-03  1.8514e-05 -2.0177e-01  9.1189e+01 -2.0170e-01  2.5092e+02  1.0226e+02  2.7162e+02  4.7036e-01  7.3639e-04  5.6123e-04  0:27:32  102
   149  1.9531e-02  2.0067e-05  1.2265e-05  1.2750e-05  1.1155e-03  1.8676e-05 -2.0177e-01  9.1108e+01 -2.0170e-01  2.5106e+02  1.0218e+02  2.7174e+02  4.7067e-01  7.3237e-04  5.5661e-04  0:27:17  101

Adapting mesh...
  Refinement expression: velo_curv001
  Coarsening expression: 
done.
   150  1.9399e-02  1.9745e-05  1.2090e-05  1.2597e-05  1.0903e-03  1.8366e-05 -2.0181e-01  9.0997e+01 -2.0170e-01  2.5120e+02  1.0211e+02  2.7180e+02  4.7097e-01  7.3037e-04  5.5053e-04  0:27:31  100
   151  1.9254e-02  1.9373e-05  1.1809e-05  1.2393e-05  1.0712e-03  1.8216e-05 -2.0186e-01  9.0854e+01 -2.0170e-01  2.5133e+02  1.0204e+02  2.7182e+02  4.7128e-01  7.3053e-04  5.4337e-04  0:27:08   99
   152  1.9075e-02  1.9187e-05  1.1691e-05  1.2312e-05  1.0558e-03  1.8158e-05 -2.0192e-01  9.0697e+01 -2.0170e-01  2.5147e+02  1.0196e+02  2.7177e+02  4.7158e-01  7.3158e-04  5.3477e-04  0:26:45   98
   153  1.8927e-02  1.9016e-05  1.1585e-05  1.2254e-05  1.0418e-03  1.8242e-05 -2.0194e-01  9.0540e+01 -2.0170e-01  2.5160e+02  1.0189e+02  2.7166e+02  4.7188e-01  7.3257e-04  5.2472e-04  0:26:25   97
   154  1.8814e-02  1.8945e-05  1.1552e-05  1.2329e-05  1.0369e-03  1.8192e-05 -2.0199e-01  9.0372e+01 -2.0170e-01  2.5173e+02  1.0181e+02  2.7149e+02  4.7219e-01  7.3438e-04  5.1306e-04  0:26:04   96

  iter  continuity  x-velocity  y-velocity  z-velocity           k       omega  he-in-inst  drag-insta  chlodnica-      down-f      drag-f    df-insta     balance      d-conv     df-conv     time/iter
   155  1.8747e-02  1.8917e-05  1.1560e-05  1.2401e-05  1.0307e-03  1.7987e-05 -2.0206e-01  9.0158e+01 -2.0171e-01  2.5185e+02  1.0174e+02  2.7125e+02  4.7249e-01  7.3897e-04  5.0002e-04  0:25:45   95
   156  1.8699e-02  1.8915e-05  1.1601e-05  1.2506e-05  1.0333e-03  1.8015e-05 -2.0212e-01  8.9926e+01 -2.0171e-01  2.5198e+02  1.0166e+02  2.7096e+02  4.7280e-01  7.4470e-04  4.8621e-04  0:25:26   94
   157  1.8641e-02  1.8970e-05  1.1712e-05  1.2661e-05  1.0358e-03  1.7925e-05 -2.0216e-01  8.9694e+01 -2.0171e-01  2.5209e+02  1.0158e+02  2.7065e+02  4.7311e-01  7.5029e-04  4.7188e-04  0:25:10   93
   158  1.8638e-02  1.9169e-05  1.1882e-05  1.2886e-05  1.0499e-03  1.8266e-05 -2.0218e-01  8.9512e+01 -2.0171e-01  2.5221e+02  1.0151e+02  2.7034e+02  4.7342e-01  7.5266e-04  4.5775e-04  0:24:51   92
   159  1.8683e-02  1.9533e-05  1.2199e-05  1.3121e-05  1.0544e-03  1.8120e-05 -2.0226e-01  8.9328e+01 -2.0172e-01  2.5232e+02  1.0143e+02  2.7004e+02  4.7374e-01  7.5526e-04  4.4448e-04  0:24:35   91
   160  1.8785e-02  1.9720e-05  1.2311e-05  1.3239e-05  1.0661e-03  1.8117e-05 -2.0232e-01  8.9176e+01 -2.0172e-01  2.5243e+02  1.0135e+02  2.6982e+02  4.7405e-01  7.5568e-04  4.3323e-04  0:24:19   90
   161  1.8827e-02  1.9837e-05  1.2440e-05  1.3331e-05  1.0793e-03  1.8091e-05 -2.0236e-01  8.9119e+01 -2.0173e-01  2.5254e+02  1.0128e+02  2.6971e+02  4.7436e-01  7.5037e-04  4.2513e-04  0:24:01   89
[...]
Information: The surface name surf-39 no longer exists for report definition d-in. They must have been deactivated/deleted.
Information: The surface name surf-40 no longer exists for report definition d-out. They must have been deactivated/deleted.
Information: The surface name surf-37 no longer exists for report definition rwheel-bot-out. They must have been deactivated/deleted.
Information: The surface name surf-38 no longer exists for report definition rwheel-bot-center. They must have been deactivated/deleted.surface/imprint-surface surf-37 surf-37 domain ()
Information: The surface name surf-39 no longer exists for report definition d-in. They must have been deactivated/deleted.
Information: The surface name surf-40 no longer exists for report definition d-out. They must have been deactivated/deleted.
Information: The surface name surf-38 no longer exists for report definition rwheel-bot-center. They must have been deactivated/deleted.surface/imprint-surface surf-38 surf-38 domain ()
Information: The surface name surf-39 no longer exists for report definition d-in. They must have been deactivated/deleted.
Information: The surface name surf-40 no longer exists for report definition d-out. They must have been deactivated/deleted.surface/imprint-surface surf-39 surf-39 domain ()
Information: The surface name surf-40 no longer exists for report definition d-out. They must have been deactivated/deleted.surface/imprint-surface surf-40 surf-40 domain ()#f

> /solve/report-files/edit c_x_y_massflow file-name "/net/scratch/people/plgpawwier/Out/C_U_11_massflow.out" name "C_U_11_massflow" quit

> /solve/iterate 50
  iter  continuity  x-velocity  y-velocity  z-velocity           k       omega  he-in-inst  drag-insta  chlodnica-      down-f      drag-f    df-insta     balance      d-conv     df-conv     time/iter
   950  2.4716e-02  2.3294e-05  1.2044e-05  1.3678e-05  3.0067e-04  1.6064e-05 -1.9834e-01  9.1313e+01 -1.9993e-01  2.7579e+02  9.1241e+01  2.7431e+02  5.1590e-01                          0:30:51   50
   951  2.1370e-02  2.1216e-05  1.1416e-05  1.2793e-05  2.2127e-04  1.5628e-05 -1.9813e-01  9.1375e+01 -1.9992e-01  2.7577e+02  9.1240e+01  2.7457e+02  5.1588e-01  1.0870e-05  5.4778e-05  0:27:22   49
   952  1.8815e-02  1.9766e-05  1.0964e-05  1.2227e-05  1.9905e-04  1.5691e-05 -1.9791e-01  9.1380e+01 -1.9990e-01  2.7576e+02  9.1239e+01  2.7482e+02  5.1586e-01  1.1623e-05  5.1903e-05  0:38:25   48
   953  1.7170e-02  1.8672e-05  1.0672e-05  1.1691e-05  1.8886e-04  1.5619e-05 -1.9780e-01  9.1406e+01 -1.9989e-01  2.7575e+02  9.1238e+01  2.7511e+02  5.1584e-01  1.2125e-05  4.7811e-05  0:46:49   47
   954  1.6539e-02  1.7816e-05  1.0314e-05  1.1185e-05  1.8392e-04  1.5709e-05 -1.9775e-01  9.1469e+01 -1.9987e-01  2.7573e+02  9.1237e+01  2.7542e+02  5.1582e-01  9.2820e-06  4.2500e-05  0:52:57   46
   955  1.6430e-02  1.7105e-05  1.0007e-05  1.0782e-05  1.8126e-04  1.5559e-05 -1.9781e-01  9.1505e+01 -1.9985e-01  2.7572e+02  9.1237e+01  2.7573e+02  5.1580e-01  5.8535e-06  3.6525e-05  0:57:33   45
   956  1.6436e-02  1.6577e-05  9.6904e-06  1.0383e-05  1.7879e-04  1.5437e-05 -1.9792e-01  9.1497e+01 -1.9984e-01  2.7572e+02  9.1236e+01  2.7602e+02  5.1578e-01  6.0208e-06  2.9221e-05  1:00:37   44
   957  1.6411e-02  1.6088e-05  9.4498e-06  1.0059e-05  1.7690e-04  1.5382e-05 -1.9810e-01  9.1507e+01 -1.9982e-01  2.7571e+02  9.1236e+01  2.7631e+02  5.1577e-01  7.7769e-06  2.1805e-05  1:02:43   43
   958  1.6347e-02  1.5721e-05  9.2486e-06  9.8096e-06  1.7468e-04  1.5460e-05 -1.9831e-01  9.1525e+01 -1.9981e-01  2.7571e+02  9.1235e+01  2.7657e+02  5.1577e-01  7.0244e-06  1.4611e-05  1:03:54   42
   959  1.6237e-02  1.5382e-05  9.1129e-06  9.6107e-06  1.7359e-04  1.5270e-05 -1.9858e-01  9.1501e+01 -1.9980e-01  2.7570e+02  9.1234e+01  2.7678e+02  5.1577e-01  6.3554e-06  8.3017e-06  1:04:27   41
   960  1.6051e-02  1.5129e-05  8.9505e-06  9.4079e-06  1.7346e-04  1.5163e-05 -1.9884e-01  9.1465e+01 -1.9979e-01  2.7570e+02  9.1234e+01  2.7695e+02  5.1577e-01  7.7771e-06  3.6528e-06  1:04:34   40

  iter  continuity  x-velocity  y-velocity  z-velocity           k       omega  he-in-inst  drag-insta  chlodnica-      down-f      drag-f    df-insta     balance      d-conv     df-conv     time/iter
Solution for report definition down-f has converged
   961  1.5847e-02  1.5009e-05  8.8670e-06  9.3196e-06  1.7379e-04  1.5225e-05 -1.9911e-01  9.1441e+01 -1.9978e-01  2.7570e+02  9.1233e+01  2.7707e+02  5.1578e-01  1.1206e-05  2.2138e-07  1:04:13   39
   962  1.5700e-02  1.4963e-05  8.8522e-06  9.3029e-06  1.7437e-04  1.5155e-05 -1.9938e-01  9.1402e+01 -1.9977e-01  2.7570e+02  9.1231e+01  2.7714e+02  5.1579e-01  1.3129e-05  1.5497e-06  1:03:35   38
   963  1.5583e-02  1.4923e-05  8.7955e-06  9.2694e-06  1.7567e-04  1.5020e-05 -1.9967e-01  9.1346e+01 -1.9977e-01  2.7570e+02  9.1230e+01  2.7717e+02  5.1581e-01  1.4719e-05  1.6603e-06  1:02:44   37
Solution for report definition down-f has converged
   964  1.5461e-02  1.4939e-05  8.7492e-06  9.2516e-06  1.7746e-04  1.4965e-05 -1.9992e-01  9.1296e+01 -1.9977e-01  2.7570e+02  9.1228e+01  2.7715e+02  5.1582e-01  1.8398e-05  5.5345e-07  1:01:41   36
   965  1.5387e-02  1.5035e-05  8.7480e-06  9.2801e-06  1.7890e-04  1.4968e-05 -2.0015e-01  9.1260e+01 -1.9977e-01  2.7570e+02  9.1226e+01  2.7711e+02  5.1584e-01  2.4170e-05  1.9924e-06  1:00:25   35
   966  1.5368e-02  1.5136e-05  8.7334e-06  9.3163e-06  1.7998e-04  1.4899e-05 -2.0036e-01  9.1225e+01 -1.9977e-01  2.7570e+02  9.1224e+01  2.7705e+02  5.1586e-01  2.6596e-05  4.2062e-06  0:59:04   34
   967  1.5351e-02  1.5217e-05  8.6892e-06  9.3363e-06  1.8093e-04  1.4840e-05 -2.0054e-01  9.1195e+01 -1.9978e-01  2.7570e+02  9.1221e+01  2.7697e+02  5.1587e-01  2.5844e-05  5.7559e-06  0:57:41   33
   968  1.5338e-02  1.5297e-05  8.6618e-06  9.3518e-06  1.8135e-04  1.4792e-05 -2.0063e-01  9.1184e+01 -1.9978e-01  2.7570e+02  9.1219e+01  2.7688e+02  5.1589e-01  2.4506e-05  6.6415e-06  0:56:09   32
   969  1.5349e-02  1.5366e-05  8.6472e-06  9.3783e-06  1.8146e-04  1.4797e-05 -2.0067e-01  9.1200e+01 -1.9979e-01  2.7570e+02  9.1217e+01  2.7680e+02  5.1590e-01  2.3754e-05  6.9736e-06  0:54:35   31
   970  1.5380e-02  1.5422e-05  8.6297e-06  9.4142e-06  1.8154e-04  1.4769e-05 -2.0066e-01  9.1225e+01 -1.9979e-01  2.7569e+02  9.1215e+01  2.7673e+02  5.1591e-01  2.0074e-05  6.6416e-06  0:52:57   30
   971  1.5392e-02  1.5481e-05  8.6106e-06  9.4384e-06  1.8151e-04  1.4762e-05 -2.0061e-01  9.1252e+01 -1.9979e-01  2.7569e+02  9.1214e+01  2.7668e+02  5.1592e-01  1.4136e-05  5.9775e-06  0:51:17   29

  iter  continuity  x-velocity  y-velocity  z-velocity           k       omega  he-in-inst  drag-insta  chlodnica-      down-f      drag-f    df-insta     balance      d-conv     df-conv     time/iter
   972  1.5394e-02  1.5497e-05  8.6043e-06  9.4636e-06  1.8076e-04  1.4738e-05 -2.0048e-01  9.1296e+01 -1.9979e-01  2.7569e+02  9.1213e+01  2.7666e+02  5.1592e-01  8.8662e-06  4.9813e-06  0:49:37   28
   973  1.5403e-02  1.5447e-05  8.6159e-06  9.4738e-06  1.8048e-04  1.4772e-05 -2.0030e-01  9.1374e+01 -1.9980e-01  2.7569e+02  9.1213e+01  2.7666e+02  5.1593e-01  4.0986e-06  3.7636e-06  0:47:53   27
   974  1.5417e-02  1.5396e-05  8.6417e-06  9.5033e-06  1.8083e-04  1.4652e-05 -2.0018e-01  9.1459e+01 -1.9980e-01  2.7569e+02  9.1213e+01  2.7668e+02  5.1593e-01  1.8402e-06  2.3246e-06  0:46:11   26
Solution for report definition down-f has converged
   975  1.5426e-02  1.5414e-05  8.6786e-06  9.5207e-06  1.8078e-04  1.4664e-05 -2.0007e-01  9.1520e+01 -1.9980e-01  2.7569e+02  9.1214e+01  2.7671e+02  5.1593e-01  8.1970e-06  2.2139e-07  0:44:28   25
   976  1.5445e-02  1.5394e-05  8.6943e-06  9.5353e-06  1.7889e-04  1.4715e-05 -1.9997e-01  9.1576e+01 -1.9980e-01  2.7569e+02  9.1215e+01  2.7676e+02  5.1593e-01  1.3215e-05  2.5460e-06  0:42:43   24
   977  1.5442e-02  1.5282e-05  8.7323e-06  9.4848e-06  1.7734e-04  1.4730e-05 -1.9990e-01  9.1671e+01 -1.9980e-01  2.7569e+02  9.1217e+01  2.7683e+02  5.1593e-01  1.7732e-05  5.5347e-06  0:40:57   23
   978  1.5396e-02  1.5158e-05  8.7419e-06  9.4483e-06  1.7733e-04  1.4622e-05 -1.9989e-01  9.1777e+01 -1.9980e-01  2.7570e+02  9.1219e+01  2.7690e+02  5.1593e-01  2.3084e-05  9.4089e-06  0:39:19   22
   979  1.5330e-02  1.5152e-05  8.7768e-06  9.3836e-06  1.7811e-04  1.4696e-05 -1.9998e-01  9.1827e+01 -1.9980e-01  2.7570e+02  9.1221e+01  2.7697e+02  5.1592e-01  2.7265e-05  1.3615e-05  0:37:37   21
   980  1.5290e-02  1.5241e-05  8.7801e-06  9.3856e-06  1.7861e-04  1.5074e-05 -2.0007e-01  9.1842e+01 -1.9980e-01  2.7570e+02  9.1224e+01  2.7705e+02  5.1591e-01  3.0108e-05  1.8264e-05  0:35:50   20
   981  1.5290e-02  1.5213e-05  8.8432e-06  9.3778e-06  1.7741e-04  1.5081e-05 -2.0017e-01  9.1904e+01 -1.9980e-01  2.7571e+02  9.1227e+01  2.7713e+02  5.1590e-01  3.3285e-05  2.3244e-05  0:34:02   19
   982  1.5270e-02  1.5073e-05  8.8011e-06  9.3141e-06  1.7619e-04  1.5178e-05 -2.0037e-01  9.2002e+01 -1.9980e-01  2.7572e+02  9.1230e+01  2.7722e+02  5.1589e-01  3.7883e-05  2.8889e-05  0:32:14   18

  iter  continuity  x-velocity  y-velocity  z-velocity           k       omega  he-in-inst  drag-insta  chlodnica-      down-f      drag-f    df-insta     balance      d-conv     df-conv     time/iter
   983  1.5216e-02  1.4999e-05  8.7994e-06  9.2669e-06  1.7698e-04  1.5355e-05 -2.0060e-01  9.2021e+01 -1.9980e-01  2.7573e+02  9.1234e+01  2.7727e+02  5.1587e-01  4.0725e-05  3.3979e-05  0:30:27   17
   984  1.5186e-02  1.5244e-05  8.8136e-06  9.3487e-06  1.7944e-04  1.5935e-05 -2.0080e-01  9.1992e+01 -1.9981e-01  2.7574e+02  9.1238e+01  2.7732e+02  5.1584e-01  4.3483e-05  3.8958e-05  0:28:39   16
   985  1.5280e-02  1.5395e-05  8.9635e-06  9.4455e-06  1.7749e-04  1.5735e-05 -2.0092e-01  9.2005e+01 -1.9981e-01  2.7575e+02  9.1242e+01  2.7736e+02  5.1581e-01  4.7745e-05  4.3715e-05  0:26:56   15
   986  1.5380e-02  1.5357e-05  8.9026e-06  9.4104e-06  1.7554e-04  1.5812e-05 -2.0100e-01  9.2063e+01 -1.9981e-01  2.7576e+02  9.1247e+01  2.7737e+02  5.1578e-01  5.3512e-05  4.8140e-05  0:25:13   14
   987  1.5368e-02  1.5241e-05  8.8795e-06  9.3592e-06  1.7366e-04  1.5909e-05 -2.0106e-01  9.2034e+01 -1.9982e-01  2.7578e+02  9.1252e+01  2.7733e+02  5.1574e-01  5.6268e-05  5.1568e-05  0:23:23   13
   988  1.5289e-02  1.5294e-05  8.7875e-06  9.3678e-06  1.7530e-04  1.6308e-05 -2.0098e-01  9.1971e+01 -1.9982e-01  2.7579e+02  9.1258e+01  2.7727e+02  5.1570e-01  5.9609e-05  5.4220e-05  0:21:34   12
   989  1.5316e-02  1.5333e-05  8.8865e-06  9.4010e-06  1.7327e-04  1.6045e-05 -2.0079e-01  9.1940e+01 -1.9982e-01  2.7581e+02  9.1264e+01  2.7721e+02  5.1565e-01  6.3868e-05  5.5656e-05  0:19:45   11
   990  1.5378e-02  1.5225e-05  8.8318e-06  9.3576e-06  1.7283e-04  1.6128e-05 -2.0052e-01  9.1945e+01 -1.9982e-01  2.7582e+02  9.1270e+01  2.7712e+02  5.1560e-01  6.7291e-05  5.5874e-05  0:17:59   10
   991  1.5292e-02  1.5146e-05  8.8383e-06  9.3234e-06  1.7172e-04  1.5920e-05 -2.0024e-01  9.1892e+01 -1.9981e-01  2.7584e+02  9.1276e+01  2.7700e+02  5.1555e-01  6.6033e-05  5.4765e-05  0:16:11    9
   992  1.5136e-02  1.4980e-05  8.7048e-06  9.2251e-06  1.7216e-04  1.5999e-05 -1.9987e-01  9.1826e+01 -1.9981e-01  2.7585e+02  9.1282e+01  2.7690e+02  5.1550e-01  6.3939e-05  5.2439e-05  0:14:22    8
   993  1.5064e-02  1.4965e-05  8.6926e-06  9.2178e-06  1.7135e-04  1.5971e-05 -1.9948e-01  9.1804e+01 -1.9981e-01  2.7587e+02  9.1287e+01  2.7681e+02  5.1545e-01  6.3517e-05  4.9560e-05  0:12:34    7

  iter  continuity  x-velocity  y-velocity  z-velocity           k       omega  he-in-inst  drag-insta  chlodnica-      down-f      drag-f    df-insta     balance      d-conv     df-conv     time/iter
   994  1.5039e-02  1.4881e-05  8.7119e-06  9.1044e-06  1.7197e-04  1.5914e-05 -1.9905e-01  9.1801e+01 -1.9980e-01  2.7588e+02  9.1293e+01  2.7672e+02  5.1541e-01  6.1257e-05  4.5575e-05  0:10:46    6
   995  1.4975e-02  1.4939e-05  8.7449e-06  9.1467e-06  1.7382e-04  1.5869e-05 -1.9863e-01  9.1803e+01 -1.9980e-01  2.7589e+02  9.1298e+01  2.7665e+02  5.1537e-01  5.7493e-05  4.1481e-05  0:08:58    5
   996  1.4955e-02  1.4895e-05  8.7626e-06  9.0908e-06  1.7322e-04  1.5812e-05 -1.9829e-01  9.1784e+01 -1.9979e-01  2.7590e+02  9.1303e+01  2.7660e+02  5.1533e-01  5.2476e-05  3.7386e-05  0:07:10    4
   997  1.5005e-02  1.4844e-05  8.6797e-06  9.0899e-06  1.7263e-04  1.5984e-05 -1.9800e-01  9.1781e+01 -1.9979e-01  2.7591e+02  9.1308e+01  2.7658e+02  5.1530e-01  4.9716e-05  3.3514e-05  0:05:23    3
   998  1.5007e-02  1.4767e-05  8.6676e-06  8.9818e-06  1.7235e-04  1.5861e-05 -1.9785e-01  9.1785e+01 -1.9978e-01  2.7592e+02  9.1312e+01  2.7657e+02  5.1527e-01  4.6539e-05  3.0195e-05  0:03:35    2
   999  1.5002e-02  1.4745e-05  8.6373e-06  8.9533e-06  1.7478e-04  1.6281e-05 -1.9773e-01  9.1820e+01 -1.9977e-01  2.7593e+02  9.1316e+01  2.7655e+02  5.1524e-01  4.4532e-05  2.6655e-05  0:01:48    1

 Grid size [    original |     adapted |      change ]
     cells [  34,708,229 |  34,806,155 |      97,926 ]
     faces [ 130,812,951 | 131,113,545 |     300,594 ]

Adapting mesh...
  Refinement expression: tke_8J
  Coarsening expression: 
     31156220 groups for partitioning (including overlaps)
     Merging groups across partitions:
      1 0
     Partition 31156220 groups out of 34708229 cells
done.

Mesh adaption information is only written to case files in HDF format. It is recommended that you write the case in HDF format.

Writing "/net/scratch/people/plgpawwier/C_U_11-390.cas"...

34498100 mixed cells, zone 9281, binary.
  159477 polyhedra cells, zone 9279, binary.
  148578 polyhedra cells, zone 9280, binary.
34498100 cell partition ids, zone 9281, 48 partitions, binary.
  159477 cell partition ids, zone 9279, 48 partitions, binary.
  148578 cell partition ids, zone 9280, 48 partitions, binary.
  711648 polygonal interior faces, zone 9408, binary.
  730984 polygonal interior faces, zone 9407, binary.
127966037 mixed interior faces, zone 9406, binary.
    7878 polygonal jump faces, zone 7262, binary.
   17011 polygonal interior faces, zone 7261, binary.
   16985 polygonal interior faces, zone 7260, binary.
     854 polygonal mass-flow-inlet faces, zone 6066, binary.
    1403 polygonal mass-flow-inlet faces, zone 7167, binary.
   15091 polygonal symmetry faces, zone 230, binary.
    5290 polygonal pressure-outlet faces, zone 4886, binary.
  116484 mixed symmetry faces, zone 516, binary.
    5315 polygonal velocity-inlet faces, zone 234, binary.
   18273 polygonal symmetry faces, zone 238, binary.
    8462 polygonal wall faces, zone 9395, binary.
   39731 polygonal wall faces, zone 9325, binary.
   47150 polygonal wall faces, zone 9324, binary.
   58142 polygonal wall faces, zone 9326, binary.
    4491 polygonal wall faces, zone 9391, binary.
   48178 polygonal wall faces, zone 9322, binary.
   68074 polygonal wall faces, zone 9323, binary.
   35756 polygonal wall faces, zone 9321, binary.
   36571 polygonal wall faces, zone 9320, binary.
   91231 polygonal wall faces, zone 3434, binary.
    1802 polygonal wall faces, zone 9385, binary.
   51688 polygonal wall faces, zone 9366, binary.
  119015 polygonal wall faces, zone 5682, binary.
   33196 polygonal wall faces, zone 9319, binary.
   47644 polygonal wall faces, zone 9348, binary.
  211495 polygonal wall faces, zone 5112, binary.
  126468 polygonal wall faces, zone 3435, binary.
   34055 polygonal wall faces, zone 9318, binary.
    7340 polygonal wall faces, zone 7246, binary.
    5053 polygonal wall faces, zone 7248, binary.
   23809 polygonal wall faces, zone 9317, binary.
   10043 polygonal wall faces, zone 5109, binary.
   46045 polygonal wall faces, zone 9355, binary.
   78746 polygonal wall faces, zone 3659, binary.
  124427 polygonal wall faces, zone 5709, binary.
  141474 polygonal wall faces, zone 235, binary.
      33 triangular unreferenced faces, zone  2, binary.
       4 triangular unreferenced faces, zone 10, binary.
       3 triangular unreferenced faces, zone 11, binary.
       3 triangular unreferenced faces, zone  4, binary.
       4 triangular unreferenced faces, zone  5, binary.
       2 triangular unreferenced faces, zone 12, binary.
       2 triangular unreferenced faces, zone 13, binary.
       2 triangular unreferenced faces, zone 14, binary.
       5 triangular unreferenced faces, zone 15, binary.
      22 triangular unreferenced faces, zone 16, binary.
       2 triangular unreferenced faces, zone 17, binary.
       2 triangular unreferenced faces, zone 21, binary.
       4 triangular unreferenced faces, zone 22, binary.
       2 triangular unreferenced faces, zone 23, binary.
       2 triangular unreferenced faces, zone 24, binary.
       6 triangular unreferenced faces, zone 25, binary.
       2 triangular unreferenced faces, zone 26, binary.
       2 triangular unreferenced faces, zone 27, binary.
       4 triangular unreferenced faces, zone 28, binary.
       2 triangular unreferenced faces, zone 29, binary.
       2 triangular unreferenced faces, zone 31, binary.
       2 triangular unreferenced faces, zone 32, binary.
       4 triangular unreferenced faces, zone 33, binary.
       2 triangular unreferenced faces, zone 34, binary.
       2 triangular unreferenced faces, zone 35, binary.
       6 triangular unreferenced faces, zone 36, binary.
       2 triangular unreferenced faces, zone 37, binary.
       2 triangular unreferenced faces, zone 38, binary.
       4 triangular unreferenced faces, zone 39, binary.
       2 triangular unreferenced faces, zone 41, binary.
       2 triangular unreferenced faces, zone 42, binary.
       2 triangular unreferenced faces, zone 43, binary.
      14 triangular unreferenced faces, zone 44, binary.
       2 triangular unreferenced faces, zone 45, binary.
       2 triangular unreferenced faces, zone 46, binary.
       5 triangular unreferenced faces, zone 47, binary.
       2 triangular unreferenced faces, zone 48, binary.
       2 triangular unreferenced faces, zone 50, binary.
       8 triangular unreferenced faces, zone 51, binary.
      31 triangular unreferenced faces, zone 18, binary.
63627677 nodes, binary.
63627677 node flags, binary.
Done.


Writing "/net/scratch/people/plgpawwier/C_U_11-390-01000.dat"...

Done.

  1000  3.6551e-02  4.3509e-05  1.7752e-05  2.0717e-05  5.5162e-04  1.7226e-05 -1.9780e-01  9.1824e+01 -1.9976e-01  2.7593e+02  9.1320e+01  2.7648e+02  5.1522e-01  4.1355e-05  2.3115e-05  0:00:00    0


> /file/export/ensight-gold "/net/scratch/people/plgpawwier/Cases/C_U_11/C_U_11" mean-pressure mean-x-velocity mean-y-velocity mean-z-velocity mean-x-wall-shear mean-y-wall-shear mean-z-wall-shear turb-kinetic-energy y-plus ()
 yes * () () no
Writing "/net/scratch/people/plgpawwier/Cases/C_U_11/C_U_11.geo"...

Done.


Writing "/net/scratch/people/plgpawwier/Cases/C_U_11/C_U_11.vel"...

Wrote velocity
Done.


Writing "/net/scratch/people/plgpawwier/Cases/C_U_11/C_U_11.scl1"...

Mean Static Pressure
Done.


Writing "/net/scratch/people/plgpawwier/Cases/C_U_11/C_U_11.scl2"...

Mean X Velocity
Done.


Writing "/net/scratch/people/plgpawwier/Cases/C_U_11/C_U_11.scl3"...

Mean Y Velocity
Done.


Writing "/net/scratch/people/plgpawwier/Cases/C_U_11/C_U_11.scl4"...

Mean Z Velocity
Done.


Writing "/net/scratch/people/plgpawwier/Cases/C_U_11/C_U_11.scl5"...

Mean X-Wall Shear Stress
Done.


Writing "/net/scratch/people/plgpawwier/Cases/C_U_11/C_U_11.scl6"...

Mean Y-Wall Shear Stress
Done.


Writing "/net/scratch/people/plgpawwier/Cases/C_U_11/C_U_11.scl7"...

Mean Z-Wall Shear Stress
Done.


Writing "/net/scratch/people/plgpawwier/Cases/C_U_11/C_U_11.scl8"...

Turbulent Kinetic Energy (k)
Done.


Writing "/net/scratch/people/plgpawwier/Cases/C_U_11/C_U_11.scl9"...

Wall Yplus
Done.


Writing "/net/scratch/people/plgpawwier/Cases/C_U_11/C_U_11.encas"...

Done.

Writing /net/scratch/people/plgpawwier/Cases/C_U_11/C_U_11.xml...
Done.


> /file//exit